*SPEF "ieee 1481-1999"
*DESIGN "openram_demo"
*DATE "11:11:11 Fri 11 11, 1111"
*VENDOR "OpenRCX"
*PROGRAM "Parallel Extraction"
*VERSION "1.0"
*DESIGN_FLOW "NAME_SCOPE LOCAL" "PIN_CAP NONE"
*DIVIDER /
*DELIMITER :
*BUS_DELIMITER []
*T_UNIT 1 NS
*C_UNIT 1 PF
*R_UNIT 1 OHM
*L_UNIT 1 HENRY

*NAME_MAP
*1 io_in[0]
*2 io_in[10]
*3 io_in[11]
*4 io_in[12]
*5 io_in[13]
*6 io_in[14]
*7 io_in[15]
*8 io_in[16]
*9 io_in[17]
*10 io_in[18]
*11 io_in[19]
*12 io_in[1]
*13 io_in[20]
*14 io_in[21]
*15 io_in[22]
*16 io_in[23]
*17 io_in[24]
*18 io_in[25]
*19 io_in[26]
*20 io_in[27]
*21 io_in[28]
*22 io_in[29]
*23 io_in[2]
*24 io_in[30]
*25 io_in[31]
*26 io_in[32]
*27 io_in[33]
*28 io_in[34]
*29 io_in[35]
*30 io_in[36]
*31 io_in[37]
*32 io_in[3]
*33 io_in[4]
*34 io_in[5]
*35 io_in[6]
*36 io_in[7]
*37 io_in[8]
*38 io_in[9]
*39 net768
*40 net778
*41 net779
*42 net780
*43 net781
*44 net782
*45 net783
*46 net784
*47 net785
*48 net786
*49 net787
*50 net769
*51 net788
*52 net789
*53 net790
*54 net791
*55 net792
*56 net793
*57 net794
*58 net795
*59 net796
*60 net797
*61 net770
*62 net798
*63 net799
*64 net800
*65 net801
*66 net802
*67 net803
*68 net804
*69 net660
*70 net771
*71 net772
*72 net773
*73 net774
*74 net775
*75 net776
*76 net777
*77 net661
*78 net671
*79 net672
*80 net673
*81 net674
*82 net675
*83 net676
*84 net677
*85 net678
*86 net679
*87 net680
*88 net662
*89 net681
*90 net682
*91 net683
*92 net684
*93 net685
*94 net686
*95 net687
*96 net688
*97 net689
*98 net690
*99 net663
*100 net691
*101 net692
*102 net693
*103 net694
*104 net695
*105 net696
*106 net697
*107 net698
*108 net664
*109 net665
*110 net666
*111 net667
*112 net668
*113 net669
*114 net670
*115 net699
*116 net700
*117 net701
*118 la_data_in[0]
*119 la_data_in[100]
*120 la_data_in[101]
*121 la_data_in[102]
*122 la_data_in[103]
*123 la_data_in[104]
*124 la_data_in[105]
*125 la_data_in[106]
*126 la_data_in[107]
*127 la_data_in[108]
*128 la_data_in[109]
*129 la_data_in[10]
*130 la_data_in[110]
*131 la_data_in[111]
*132 la_data_in[112]
*133 la_data_in[113]
*134 la_data_in[114]
*135 la_data_in[115]
*136 la_data_in[116]
*137 la_data_in[117]
*138 la_data_in[118]
*139 la_data_in[119]
*140 la_data_in[11]
*141 la_data_in[120]
*142 la_data_in[121]
*143 la_data_in[122]
*144 la_data_in[123]
*145 la_data_in[124]
*146 la_data_in[125]
*147 la_data_in[126]
*148 la_data_in[127]
*149 la_data_in[12]
*150 la_data_in[13]
*151 la_data_in[14]
*152 la_data_in[15]
*153 la_data_in[16]
*154 la_data_in[17]
*155 la_data_in[18]
*156 la_data_in[19]
*157 la_data_in[1]
*158 la_data_in[20]
*159 la_data_in[21]
*160 la_data_in[22]
*161 la_data_in[23]
*162 la_data_in[24]
*163 la_data_in[25]
*164 la_data_in[26]
*165 la_data_in[27]
*166 la_data_in[28]
*167 la_data_in[29]
*168 la_data_in[2]
*169 la_data_in[30]
*170 la_data_in[31]
*171 la_data_in[32]
*172 la_data_in[33]
*173 la_data_in[34]
*174 la_data_in[35]
*175 la_data_in[36]
*176 la_data_in[37]
*177 la_data_in[38]
*178 la_data_in[39]
*179 la_data_in[3]
*180 la_data_in[40]
*181 la_data_in[41]
*182 la_data_in[42]
*183 la_data_in[43]
*184 la_data_in[44]
*185 la_data_in[45]
*186 la_data_in[46]
*187 la_data_in[47]
*188 la_data_in[48]
*189 la_data_in[49]
*190 la_data_in[4]
*191 la_data_in[50]
*192 la_data_in[51]
*193 la_data_in[52]
*194 la_data_in[53]
*195 la_data_in[54]
*196 la_data_in[55]
*197 la_data_in[56]
*198 la_data_in[57]
*199 la_data_in[58]
*200 la_data_in[59]
*201 la_data_in[5]
*202 la_data_in[60]
*203 la_data_in[61]
*204 la_data_in[62]
*205 la_data_in[63]
*206 la_data_in[64]
*207 la_data_in[65]
*208 la_data_in[66]
*209 la_data_in[67]
*210 la_data_in[68]
*211 la_data_in[69]
*212 la_data_in[6]
*213 la_data_in[70]
*214 la_data_in[71]
*215 la_data_in[72]
*216 la_data_in[73]
*217 la_data_in[74]
*218 la_data_in[75]
*219 la_data_in[76]
*220 la_data_in[77]
*221 la_data_in[78]
*222 la_data_in[79]
*223 la_data_in[7]
*224 la_data_in[80]
*225 la_data_in[81]
*226 la_data_in[82]
*227 la_data_in[83]
*228 la_data_in[84]
*229 la_data_in[85]
*230 la_data_in[86]
*231 la_data_in[87]
*232 la_data_in[88]
*233 la_data_in[89]
*234 la_data_in[8]
*235 la_data_in[90]
*236 la_data_in[91]
*237 la_data_in[92]
*238 la_data_in[93]
*239 la_data_in[94]
*240 la_data_in[95]
*241 la_data_in[96]
*242 la_data_in[97]
*243 la_data_in[98]
*244 la_data_in[99]
*245 la_data_in[9]
*246 la_data_out[0]
*247 net738
*248 net739
*249 net740
*250 net741
*251 net742
*252 net743
*253 net744
*254 net745
*255 net746
*256 net747
*257 la_data_out[10]
*258 net748
*259 net749
*260 net750
*261 net751
*262 net752
*263 net753
*264 net754
*265 net755
*266 net756
*267 net757
*268 la_data_out[11]
*269 net758
*270 net759
*271 net760
*272 net761
*273 net762
*274 net763
*275 net764
*276 net765
*277 la_data_out[12]
*278 la_data_out[13]
*279 la_data_out[14]
*280 la_data_out[15]
*281 la_data_out[16]
*282 la_data_out[17]
*283 la_data_out[18]
*284 la_data_out[19]
*285 la_data_out[1]
*286 la_data_out[20]
*287 la_data_out[21]
*288 la_data_out[22]
*289 la_data_out[23]
*290 la_data_out[24]
*291 la_data_out[25]
*292 la_data_out[26]
*293 la_data_out[27]
*294 la_data_out[28]
*295 la_data_out[29]
*296 la_data_out[2]
*297 la_data_out[30]
*298 la_data_out[31]
*299 la_data_out[32]
*300 la_data_out[33]
*301 la_data_out[34]
*302 la_data_out[35]
*303 la_data_out[36]
*304 la_data_out[37]
*305 la_data_out[38]
*306 la_data_out[39]
*307 la_data_out[3]
*308 la_data_out[40]
*309 la_data_out[41]
*310 la_data_out[42]
*311 la_data_out[43]
*312 la_data_out[44]
*313 la_data_out[45]
*314 la_data_out[46]
*315 la_data_out[47]
*316 la_data_out[48]
*317 la_data_out[49]
*318 la_data_out[4]
*319 la_data_out[50]
*320 la_data_out[51]
*321 la_data_out[52]
*322 la_data_out[53]
*323 la_data_out[54]
*324 la_data_out[55]
*325 la_data_out[56]
*326 la_data_out[57]
*327 la_data_out[58]
*328 la_data_out[59]
*329 la_data_out[5]
*330 la_data_out[60]
*331 la_data_out[61]
*332 la_data_out[62]
*333 la_data_out[63]
*334 net702
*335 net703
*336 net704
*337 net705
*338 net706
*339 net707
*340 la_data_out[6]
*341 net708
*342 net709
*343 net710
*344 net711
*345 net712
*346 net713
*347 net714
*348 net715
*349 net716
*350 net717
*351 la_data_out[7]
*352 net718
*353 net719
*354 net720
*355 net721
*356 net722
*357 net723
*358 net724
*359 net725
*360 net726
*361 net727
*362 la_data_out[8]
*363 net728
*364 net729
*365 net730
*366 net731
*367 net732
*368 net733
*369 net734
*370 net735
*371 net736
*372 net737
*373 la_data_out[9]
*374 la_oenb[0]
*375 la_oenb[100]
*376 la_oenb[101]
*377 la_oenb[102]
*378 la_oenb[103]
*379 la_oenb[104]
*380 la_oenb[105]
*381 la_oenb[106]
*382 la_oenb[107]
*383 la_oenb[108]
*384 la_oenb[109]
*385 la_oenb[10]
*386 la_oenb[110]
*387 la_oenb[111]
*388 la_oenb[112]
*389 la_oenb[113]
*390 la_oenb[114]
*391 la_oenb[115]
*392 la_oenb[116]
*393 la_oenb[117]
*394 la_oenb[118]
*395 la_oenb[119]
*396 la_oenb[11]
*397 la_oenb[120]
*398 la_oenb[121]
*399 la_oenb[122]
*400 la_oenb[123]
*401 la_oenb[124]
*402 la_oenb[125]
*403 la_oenb[126]
*404 la_oenb[127]
*405 la_oenb[12]
*406 la_oenb[13]
*407 la_oenb[14]
*408 la_oenb[15]
*409 la_oenb[16]
*410 la_oenb[17]
*411 la_oenb[18]
*412 la_oenb[19]
*413 la_oenb[1]
*414 la_oenb[20]
*415 la_oenb[21]
*416 la_oenb[22]
*417 la_oenb[23]
*418 la_oenb[24]
*419 la_oenb[25]
*420 la_oenb[26]
*421 la_oenb[27]
*422 la_oenb[28]
*423 la_oenb[29]
*424 la_oenb[2]
*425 la_oenb[30]
*426 la_oenb[31]
*427 la_oenb[32]
*428 la_oenb[33]
*429 la_oenb[34]
*430 la_oenb[35]
*431 la_oenb[36]
*432 la_oenb[37]
*433 la_oenb[38]
*434 la_oenb[39]
*435 la_oenb[3]
*436 la_oenb[40]
*437 la_oenb[41]
*438 la_oenb[42]
*439 la_oenb[43]
*440 la_oenb[44]
*441 la_oenb[45]
*442 la_oenb[46]
*443 la_oenb[47]
*444 la_oenb[48]
*445 la_oenb[49]
*446 la_oenb[4]
*447 la_oenb[50]
*448 la_oenb[51]
*449 la_oenb[52]
*450 la_oenb[53]
*451 la_oenb[54]
*452 la_oenb[55]
*453 la_oenb[56]
*454 la_oenb[57]
*455 la_oenb[58]
*456 la_oenb[59]
*457 la_oenb[5]
*458 la_oenb[60]
*459 la_oenb[61]
*460 la_oenb[62]
*461 la_oenb[63]
*462 la_oenb[64]
*463 la_oenb[65]
*464 la_oenb[66]
*465 la_oenb[67]
*466 la_oenb[68]
*467 la_oenb[69]
*468 la_oenb[6]
*469 la_oenb[70]
*470 la_oenb[71]
*471 la_oenb[72]
*472 la_oenb[73]
*473 la_oenb[74]
*474 la_oenb[75]
*475 la_oenb[76]
*476 la_oenb[77]
*477 la_oenb[78]
*478 la_oenb[79]
*479 la_oenb[7]
*480 la_oenb[80]
*481 la_oenb[81]
*482 la_oenb[82]
*483 la_oenb[83]
*484 la_oenb[84]
*485 la_oenb[85]
*486 la_oenb[86]
*487 la_oenb[87]
*488 la_oenb[88]
*489 la_oenb[89]
*490 la_oenb[8]
*491 la_oenb[90]
*492 la_oenb[91]
*493 la_oenb[92]
*494 la_oenb[93]
*495 la_oenb[94]
*496 la_oenb[95]
*497 la_oenb[96]
*498 la_oenb[97]
*499 la_oenb[98]
*500 la_oenb[99]
*501 la_oenb[9]
*504 wb_clk_i
*505 wb_rst_i
*506 wbs_ack_o
*507 wbs_adr_i[0]
*508 wbs_adr_i[10]
*509 wbs_adr_i[11]
*510 wbs_adr_i[12]
*511 wbs_adr_i[13]
*512 wbs_adr_i[14]
*513 wbs_adr_i[15]
*514 wbs_adr_i[16]
*515 wbs_adr_i[17]
*516 wbs_adr_i[18]
*517 wbs_adr_i[19]
*518 wbs_adr_i[1]
*519 wbs_adr_i[20]
*520 wbs_adr_i[21]
*521 wbs_adr_i[22]
*522 wbs_adr_i[23]
*523 wbs_adr_i[24]
*524 wbs_adr_i[25]
*525 wbs_adr_i[26]
*526 wbs_adr_i[27]
*527 wbs_adr_i[28]
*528 wbs_adr_i[29]
*529 wbs_adr_i[2]
*530 wbs_adr_i[30]
*531 wbs_adr_i[31]
*532 wbs_adr_i[3]
*533 wbs_adr_i[4]
*534 wbs_adr_i[5]
*535 wbs_adr_i[6]
*536 wbs_adr_i[7]
*537 wbs_adr_i[8]
*538 wbs_adr_i[9]
*539 wbs_cyc_i
*540 wbs_dat_i[0]
*541 wbs_dat_i[10]
*542 wbs_dat_i[11]
*543 wbs_dat_i[12]
*544 wbs_dat_i[13]
*545 wbs_dat_i[14]
*546 wbs_dat_i[15]
*547 wbs_dat_i[16]
*548 wbs_dat_i[17]
*549 wbs_dat_i[18]
*550 wbs_dat_i[19]
*551 wbs_dat_i[1]
*552 wbs_dat_i[20]
*553 wbs_dat_i[21]
*554 wbs_dat_i[22]
*555 wbs_dat_i[23]
*556 wbs_dat_i[24]
*557 wbs_dat_i[25]
*558 wbs_dat_i[26]
*559 wbs_dat_i[27]
*560 wbs_dat_i[28]
*561 wbs_dat_i[29]
*562 wbs_dat_i[2]
*563 wbs_dat_i[30]
*564 wbs_dat_i[31]
*565 wbs_dat_i[3]
*566 wbs_dat_i[4]
*567 wbs_dat_i[5]
*568 wbs_dat_i[6]
*569 wbs_dat_i[7]
*570 wbs_dat_i[8]
*571 wbs_dat_i[9]
*572 wbs_dat_o[0]
*573 wbs_dat_o[10]
*574 wbs_dat_o[11]
*575 wbs_dat_o[12]
*576 wbs_dat_o[13]
*577 wbs_dat_o[14]
*578 wbs_dat_o[15]
*579 wbs_dat_o[16]
*580 wbs_dat_o[17]
*581 wbs_dat_o[18]
*582 wbs_dat_o[19]
*583 wbs_dat_o[1]
*584 wbs_dat_o[20]
*585 wbs_dat_o[21]
*586 wbs_dat_o[22]
*587 wbs_dat_o[23]
*588 wbs_dat_o[24]
*589 wbs_dat_o[25]
*590 wbs_dat_o[26]
*591 wbs_dat_o[27]
*592 wbs_dat_o[28]
*593 wbs_dat_o[29]
*594 wbs_dat_o[2]
*595 wbs_dat_o[30]
*596 wbs_dat_o[31]
*597 wbs_dat_o[3]
*598 wbs_dat_o[4]
*599 wbs_dat_o[5]
*600 wbs_dat_o[6]
*601 wbs_dat_o[7]
*602 wbs_dat_o[8]
*603 wbs_dat_o[9]
*604 wbs_sel_i[0]
*605 wbs_sel_i[1]
*606 wbs_sel_i[2]
*607 wbs_sel_i[3]
*608 wbs_stb_i
*609 wbs_we_i
*610 _0000_
*611 _0001_
*612 _0002_
*613 _0003_
*614 _0004_
*615 _0005_
*616 _0006_
*617 _0007_
*618 _0008_
*619 _0009_
*620 _0010_
*621 _0011_
*622 _0012_
*623 _0013_
*624 _0014_
*625 _0015_
*626 _0016_
*627 _0017_
*628 _0018_
*629 _0019_
*630 _0020_
*631 _0021_
*632 _0022_
*633 _0023_
*634 _0024_
*635 _0025_
*636 _0026_
*637 _0027_
*638 _0028_
*639 _0029_
*640 _0030_
*641 _0031_
*642 _0032_
*643 _0033_
*644 _0034_
*645 _0035_
*646 _0036_
*647 _0037_
*648 _0038_
*649 _0039_
*650 _0040_
*651 _0041_
*652 _0042_
*653 _0043_
*654 _0044_
*655 _0045_
*656 _0046_
*657 _0047_
*658 _0048_
*659 _0049_
*660 _0050_
*661 _0051_
*662 _0052_
*663 _0053_
*664 _0054_
*665 _0055_
*666 _0056_
*667 _0057_
*668 _0058_
*669 _0059_
*670 _0060_
*671 _0061_
*672 _0062_
*673 _0063_
*674 _0064_
*675 _0065_
*676 _0066_
*677 _0067_
*678 _0068_
*679 _0069_
*680 _0070_
*681 _0071_
*682 _0072_
*683 _0073_
*684 _0074_
*685 _0075_
*686 _0076_
*687 _0077_
*688 _0078_
*689 _0079_
*690 _0080_
*691 _0081_
*692 _0082_
*693 _0083_
*694 _0084_
*695 _0085_
*696 _0086_
*697 _0087_
*698 _0088_
*699 _0089_
*700 _0090_
*701 _0091_
*702 _0092_
*703 _0093_
*704 _0094_
*705 _0095_
*706 _0096_
*707 _0097_
*708 _0098_
*709 _0099_
*710 _0100_
*711 _0101_
*712 _0102_
*713 _0103_
*714 _0104_
*715 _0107_
*716 _0108_
*717 _0109_
*718 _0110_
*719 _0111_
*720 _0112_
*721 _0113_
*722 _0114_
*723 _0115_
*724 _0116_
*725 _0117_
*726 _0118_
*727 _0119_
*728 _0120_
*729 _0121_
*730 _0122_
*731 _0123_
*732 _0124_
*733 _0125_
*734 _0126_
*735 _0127_
*736 _0128_
*737 _0129_
*738 _0130_
*739 _0131_
*740 _0132_
*741 _0133_
*742 _0134_
*743 _0135_
*744 _0136_
*745 _0137_
*746 _0138_
*747 _0139_
*748 _0140_
*749 _0141_
*750 _0142_
*751 _0143_
*752 _0144_
*753 _0145_
*754 _0146_
*755 _0147_
*756 _0148_
*757 _0149_
*758 _0150_
*759 _0151_
*760 _0152_
*761 _0153_
*762 _0154_
*763 _0155_
*764 _0156_
*765 _0157_
*766 _0158_
*767 _0159_
*768 _0160_
*769 _0161_
*770 _0162_
*771 _0163_
*772 _0164_
*773 _0165_
*774 _0166_
*775 _0167_
*776 _0168_
*777 _0169_
*778 _0170_
*779 _0171_
*780 _0172_
*781 _0173_
*782 _0174_
*783 _0175_
*784 _0176_
*785 _0177_
*786 _0178_
*787 _0179_
*788 _0180_
*789 _0181_
*790 _0182_
*791 _0183_
*792 _0184_
*793 _0185_
*794 _0186_
*795 _0187_
*796 _0188_
*797 _0189_
*798 _0190_
*799 _0191_
*800 _0192_
*801 _0193_
*802 _0194_
*803 _0195_
*804 _0196_
*805 _0197_
*806 _0198_
*807 _0199_
*808 _0200_
*809 _0201_
*810 _0202_
*811 _0203_
*812 _0204_
*813 _0205_
*814 _0206_
*815 _0207_
*816 _0208_
*817 _0209_
*818 _0210_
*819 _0211_
*820 _0212_
*821 _0213_
*822 _0214_
*823 _0215_
*824 _0216_
*825 _0217_
*826 _0218_
*827 _0219_
*828 _0220_
*829 _0221_
*830 _0222_
*831 _0223_
*832 _0224_
*833 _0225_
*834 _0226_
*835 _0227_
*836 _0228_
*837 _0229_
*838 _0230_
*839 _0231_
*840 _0232_
*841 _0233_
*842 _0234_
*843 _0235_
*844 _0236_
*845 _0237_
*846 _0238_
*847 _0239_
*848 _0240_
*849 _0241_
*850 _0242_
*851 _0243_
*852 _0244_
*853 _0245_
*854 _0246_
*855 _0247_
*856 _0248_
*857 _0249_
*858 _0250_
*859 _0251_
*860 _0252_
*861 _0253_
*862 _0254_
*863 _0255_
*864 _0256_
*865 _0257_
*866 _0258_
*867 _0259_
*868 _0260_
*869 _0261_
*870 _0262_
*871 _0263_
*872 _0264_
*873 _0265_
*874 _0266_
*875 _0267_
*876 _0268_
*877 _0269_
*878 _0270_
*879 _0271_
*880 _0272_
*881 _0273_
*882 _0274_
*883 _0275_
*884 _0276_
*885 _0277_
*886 _0278_
*887 _0279_
*888 _0280_
*889 _0281_
*890 _0282_
*891 _0283_
*892 _0284_
*893 _0285_
*894 _0286_
*895 _0287_
*896 _0288_
*897 _0289_
*898 _0290_
*899 _0291_
*900 _0292_
*901 _0293_
*902 _0294_
*903 _0295_
*904 _0296_
*905 _0297_
*906 _0298_
*907 _0299_
*908 _0300_
*909 _0301_
*910 _0302_
*911 _0303_
*912 _0304_
*913 _0305_
*914 _0306_
*915 _0307_
*916 _0308_
*917 _0309_
*918 _0310_
*919 _0311_
*920 _0312_
*921 _0313_
*922 _0314_
*923 _0315_
*924 _0316_
*925 _0317_
*926 _0318_
*927 _0319_
*928 _0320_
*929 _0321_
*930 _0322_
*931 _0323_
*932 _0324_
*933 _0325_
*934 _0326_
*935 _0327_
*936 _0328_
*937 _0329_
*938 _0330_
*939 _0331_
*940 _0332_
*941 _0333_
*942 _0334_
*943 _0335_
*944 _0336_
*945 _0337_
*946 _0338_
*947 _0339_
*948 _0340_
*949 _0341_
*950 _0342_
*951 _0343_
*952 _0344_
*953 _0345_
*954 _0346_
*955 _0347_
*956 _0348_
*957 _0349_
*958 _0350_
*959 _0351_
*960 _0352_
*961 _0353_
*962 _0354_
*963 _0355_
*964 _0356_
*965 _0357_
*966 _0358_
*967 _0359_
*968 _0360_
*969 _0361_
*970 _0362_
*971 _0363_
*972 _0364_
*973 _0365_
*974 _0366_
*975 _0367_
*976 _0368_
*977 _0369_
*978 _0370_
*979 _0371_
*980 _0372_
*981 _0373_
*982 _0374_
*983 _0375_
*984 _0376_
*985 _0377_
*986 _0378_
*987 _0379_
*988 _0380_
*989 _0381_
*990 _0382_
*991 _0383_
*992 _0384_
*993 _0385_
*994 _0386_
*995 _0387_
*996 _0388_
*997 _0389_
*998 _0390_
*999 _0391_
*1000 _0392_
*1001 _0393_
*1002 _0394_
*1003 _0395_
*1004 _0396_
*1005 _0397_
*1006 _0398_
*1007 _0399_
*1008 _0400_
*1009 _0401_
*1010 _0402_
*1011 _0403_
*1012 _0404_
*1013 _0405_
*1014 _0406_
*1015 _0407_
*1016 _0408_
*1017 _0409_
*1018 _0410_
*1019 _0411_
*1020 _0412_
*1021 _0413_
*1022 _0414_
*1023 _0415_
*1024 _0416_
*1025 _0417_
*1026 _0418_
*1027 _0419_
*1028 _0420_
*1029 _0421_
*1030 _0422_
*1031 _0423_
*1032 _0424_
*1033 _0425_
*1034 _0426_
*1035 _0427_
*1036 _0428_
*1037 _0429_
*1038 _0430_
*1039 _0431_
*1040 _0432_
*1041 _0433_
*1042 _0434_
*1043 _0435_
*1044 _0436_
*1045 _0437_
*1046 _0438_
*1047 _0439_
*1048 _0440_
*1049 _0441_
*1050 _0442_
*1051 _0443_
*1052 _0444_
*1053 _0445_
*1054 _0446_
*1055 _0447_
*1056 _0448_
*1057 _0449_
*1058 _0450_
*1059 _0451_
*1060 _0452_
*1061 _0453_
*1062 _0454_
*1063 _0455_
*1064 _0456_
*1065 _0457_
*1066 _0458_
*1067 _0459_
*1068 _0460_
*1069 _0461_
*1070 _0462_
*1071 _0463_
*1072 _0464_
*1073 _0465_
*1074 _0466_
*1075 _0467_
*1076 _0468_
*1077 _0469_
*1078 _0470_
*1079 _0471_
*1080 _0472_
*1081 _0473_
*1082 _0474_
*1083 _0475_
*1084 _0476_
*1085 _0477_
*1086 _0478_
*1087 _0479_
*1088 _0480_
*1089 _0481_
*1090 _0482_
*1091 _0483_
*1092 _0484_
*1093 _0485_
*1094 _0486_
*1095 _0487_
*1096 _0488_
*1097 _0489_
*1098 _0490_
*1099 _0491_
*1100 _0492_
*1101 _0493_
*1102 _0494_
*1103 _0495_
*1104 _0496_
*1105 _0497_
*1106 _0498_
*1107 _0499_
*1108 _0500_
*1109 _0501_
*1110 _0502_
*1111 _0503_
*1112 _0504_
*1113 _0505_
*1114 _0506_
*1115 _0507_
*1116 _0508_
*1117 _0509_
*1118 _0510_
*1119 _0511_
*1120 _0512_
*1121 _0513_
*1122 _0514_
*1123 _0515_
*1124 _0516_
*1125 _0517_
*1126 _0518_
*1127 _0519_
*1128 _0520_
*1129 _0521_
*1130 _0522_
*1131 _0523_
*1132 _0524_
*1133 _0525_
*1134 _0526_
*1135 _0527_
*1136 _0528_
*1137 _0529_
*1138 _0530_
*1139 _0531_
*1140 _0532_
*1141 _0533_
*1142 _0534_
*1143 _0535_
*1144 _0536_
*1145 _0537_
*1146 _0538_
*1147 _0539_
*1148 _0540_
*1149 _0541_
*1150 _0542_
*1151 _0543_
*1152 _0544_
*1153 _0545_
*1154 _0546_
*1155 _0547_
*1156 _0548_
*1157 _0549_
*1158 _0550_
*1159 _0551_
*1160 _0552_
*1161 _0553_
*1162 _0554_
*1163 _0555_
*1164 _0556_
*1165 _0557_
*1166 _0558_
*1167 _0559_
*1168 _0560_
*1169 _0561_
*1170 _0562_
*1171 _0563_
*1172 _0564_
*1173 _0565_
*1174 _0566_
*1175 _0567_
*1176 _0568_
*1177 _0569_
*1178 _0570_
*1179 _0571_
*1180 _0572_
*1181 _0573_
*1182 _0574_
*1183 _0575_
*1184 _0576_
*1185 _0577_
*1186 _0578_
*1187 _0579_
*1188 _0580_
*1189 _0581_
*1190 _0582_
*1191 _0583_
*1192 _0584_
*1193 _0585_
*1194 _0586_
*1195 _0587_
*1196 _0588_
*1197 _0589_
*1198 _0590_
*1199 _0591_
*1200 _0592_
*1201 _0593_
*1202 _0594_
*1203 _0595_
*1204 _0596_
*1205 _0597_
*1206 _0598_
*1207 _0599_
*1208 _0600_
*1209 _0601_
*1210 _0602_
*1211 _0603_
*1212 _0604_
*1213 _0605_
*1214 _0606_
*1215 _0607_
*1216 _0608_
*1217 _0609_
*1218 _0610_
*1219 _0611_
*1220 _0612_
*1221 _0613_
*1222 _0614_
*1223 _0615_
*1224 _0616_
*1225 _0617_
*1226 _0618_
*1227 _0619_
*1228 _0620_
*1229 _0621_
*1230 _0622_
*1231 _0623_
*1232 _0624_
*1233 _0625_
*1234 _0626_
*1235 _0627_
*1236 _0628_
*1237 _0629_
*1238 _0630_
*1239 _0631_
*1240 _0632_
*1241 _0633_
*1242 _0634_
*1243 _0635_
*1244 _0636_
*1245 _0637_
*1246 _0638_
*1247 _0639_
*1248 _0640_
*1249 _0641_
*1250 _0642_
*1251 _0643_
*1252 _0644_
*1253 _0645_
*1254 _0646_
*1255 _0647_
*1256 _0648_
*1257 _0649_
*1258 _0650_
*1259 _0651_
*1260 _0652_
*1261 _0653_
*1262 _0654_
*1263 _0655_
*1264 _0656_
*1265 _0657_
*1266 _0658_
*1267 _0659_
*1268 _0660_
*1269 _0661_
*1270 _0662_
*1271 _0663_
*1272 _0664_
*1273 _0665_
*1274 _0666_
*1275 _0667_
*1276 _0668_
*1277 _0669_
*1278 _0670_
*1279 _0671_
*1280 _0672_
*1281 _0673_
*1282 _0674_
*1283 _0675_
*1284 _0676_
*1285 _0677_
*1286 _0678_
*1287 _0679_
*1288 _0680_
*1289 _0681_
*1290 _0682_
*1291 _0683_
*1292 _0684_
*1293 _0685_
*1294 _0686_
*1295 _0687_
*1296 _0688_
*1297 _0689_
*1298 _0690_
*1299 _0691_
*1300 _0692_
*1301 _0693_
*1302 _0694_
*1303 _0695_
*1304 _0696_
*1305 _0697_
*1306 _0698_
*1307 _0699_
*1308 _0700_
*1309 _0701_
*1310 _0702_
*1311 _0703_
*1312 _0704_
*1313 _0705_
*1314 _0706_
*1315 _0707_
*1316 _0708_
*1317 _0709_
*1318 _0710_
*1319 _0711_
*1320 _0712_
*1321 _0713_
*1322 _0714_
*1323 _0715_
*1324 _0716_
*1325 _0717_
*1326 _0718_
*1327 _0719_
*1328 _0720_
*1329 _0721_
*1330 _0722_
*1331 _0723_
*1332 _0724_
*1333 _0725_
*1334 _0726_
*1335 _0727_
*1336 _0728_
*1337 _0729_
*1338 _0730_
*1339 _0731_
*1340 _0732_
*1341 _0733_
*1342 _0734_
*1343 _0735_
*1344 _0736_
*1345 _0737_
*1346 _0738_
*1347 _0739_
*1348 _0740_
*1349 _0741_
*1350 _0742_
*1351 _0743_
*1352 _0744_
*1353 _0745_
*1354 _0746_
*1355 _0747_
*1356 _0748_
*1357 _0749_
*1358 _0750_
*1359 _0751_
*1360 _0752_
*1361 _0753_
*1362 _0754_
*1363 _0755_
*1364 _0756_
*1365 _0757_
*1366 _0758_
*1367 _0759_
*1368 _0760_
*1369 _0761_
*1370 _0762_
*1371 _0763_
*1372 _0764_
*1373 _0765_
*1374 _0766_
*1375 _0767_
*1376 _0768_
*1377 _0769_
*1378 _0770_
*1379 _0771_
*1380 _0772_
*1381 _0773_
*1382 _0774_
*1383 _0775_
*1384 _0776_
*1385 _0777_
*1386 _0778_
*1387 _0779_
*1388 _0780_
*1389 _0781_
*1390 _0782_
*1391 _0783_
*1392 _0784_
*1393 _0785_
*1394 _0786_
*1395 _0787_
*1396 _0788_
*1397 _0789_
*1398 _0790_
*1399 _0791_
*1400 _0792_
*1401 _0793_
*1402 _0794_
*1403 _0795_
*1404 _0796_
*1405 _0797_
*1406 _0798_
*1407 _0799_
*1408 _0800_
*1409 _0801_
*1410 _0802_
*1411 _0803_
*1412 _0804_
*1413 _0805_
*1414 _0806_
*1415 _0807_
*1416 _0808_
*1417 _0809_
*1418 _0810_
*1419 _0811_
*1420 _0812_
*1421 _0813_
*1422 _0814_
*1423 _0815_
*1424 _0816_
*1425 _0817_
*1426 _0818_
*1427 _0819_
*1428 _0820_
*1429 _0821_
*1430 _0822_
*1431 _0823_
*1432 _0824_
*1433 _0825_
*1434 _0826_
*1435 _0827_
*1436 _0828_
*1437 _0829_
*1438 _0830_
*1439 _0831_
*1440 _0832_
*1441 _0833_
*1442 _0834_
*1443 _0835_
*1444 _0836_
*1445 _0837_
*1446 _0838_
*1447 _0839_
*1448 _0840_
*1449 _0841_
*1450 _0842_
*1451 _0843_
*1452 _0844_
*1453 _0845_
*1454 _0846_
*1455 _0847_
*1456 _0848_
*1457 _0849_
*1458 _0850_
*1459 _0851_
*1460 _0852_
*1461 _0853_
*1462 _0854_
*1463 _0855_
*1464 _0856_
*1465 _0857_
*1466 _0858_
*1467 _0859_
*1468 _0860_
*1469 _0861_
*1470 _0862_
*1471 _0863_
*1472 _0864_
*1473 _0865_
*1474 _0866_
*1475 _0867_
*1476 _0868_
*1477 _0869_
*1478 _0870_
*1479 _0871_
*1480 _0872_
*1481 _0873_
*1482 _0874_
*1483 _0875_
*1484 _0876_
*1485 _0877_
*1486 _0878_
*1487 _0879_
*1488 _0880_
*1489 _0881_
*1490 _0882_
*1491 _0883_
*1492 _0884_
*1493 _0885_
*1494 _0886_
*1495 _0887_
*1496 _0888_
*1497 _0889_
*1498 _0890_
*1499 _0891_
*1500 _0892_
*1501 _0893_
*1502 _0894_
*1503 _0895_
*1504 clk
*1505 clknet_0_clk
*1506 clknet_1_0_0_clk
*1507 clknet_1_0_1_clk
*1508 clknet_1_1_0_clk
*1509 clknet_1_1_1_clk
*1510 clknet_2_0_0_clk
*1511 clknet_2_0_1_clk
*1512 clknet_2_1_0_clk
*1513 clknet_2_1_1_clk
*1514 clknet_2_2_0_clk
*1515 clknet_2_2_1_clk
*1516 clknet_2_3_0_clk
*1517 clknet_2_3_1_clk
*1518 clknet_leaf_0_clk
*1519 clknet_leaf_10_clk
*1520 clknet_leaf_15_clk
*1521 clknet_leaf_17_clk
*1522 clknet_leaf_18_clk
*1523 clknet_leaf_19_clk
*1524 clknet_leaf_1_clk
*1525 clknet_leaf_20_clk
*1526 clknet_leaf_21_clk
*1527 clknet_leaf_22_clk
*1528 clknet_leaf_23_clk
*1529 clknet_leaf_24_clk
*1530 clknet_leaf_25_clk
*1531 clknet_leaf_26_clk
*1532 clknet_leaf_27_clk
*1533 clknet_leaf_28_clk
*1534 clknet_leaf_29_clk
*1535 clknet_leaf_2_clk
*1536 clknet_leaf_30_clk
*1537 clknet_leaf_31_clk
*1538 clknet_leaf_34_clk
*1539 clknet_leaf_35_clk
*1540 clknet_leaf_36_clk
*1541 clknet_leaf_37_clk
*1542 clknet_leaf_38_clk
*1543 clknet_leaf_39_clk
*1544 clknet_leaf_3_clk
*1545 clknet_leaf_40_clk
*1546 clknet_leaf_41_clk
*1547 clknet_leaf_42_clk
*1548 clknet_leaf_43_clk
*1549 clknet_leaf_44_clk
*1550 clknet_leaf_45_clk
*1551 clknet_leaf_46_clk
*1552 clknet_leaf_47_clk
*1553 clknet_leaf_48_clk
*1554 clknet_leaf_49_clk
*1555 clknet_leaf_4_clk
*1556 clknet_leaf_50_clk
*1557 clknet_leaf_51_clk
*1558 clknet_leaf_52_clk
*1559 clknet_leaf_53_clk
*1560 clknet_leaf_54_clk
*1561 clknet_leaf_55_clk
*1562 clknet_leaf_5_clk
*1563 clknet_leaf_6_clk
*1564 clknet_leaf_7_clk
*1565 clknet_leaf_8_clk
*1566 clknet_opt_1_0_clk
*1567 clknet_opt_1_1_clk
*1568 clknet_opt_2_0_clk
*1569 clknet_opt_2_1_clk
*1570 clknet_opt_2_2_clk
*1571 clknet_opt_2_3_clk
*1572 clknet_opt_2_4_clk
*1573 clknet_opt_3_0_clk
*1574 clknet_opt_3_1_clk
*1575 clknet_opt_3_2_clk
*1576 clknet_opt_3_3_clk
*1577 counter_q\[0\]
*1578 counter_q\[1\]
*1579 counter_q\[2\]
*1580 counter_q\[3\]
*1581 counter_q\[4\]
*1582 counter_q\[5\]
*1583 counter_q\[6\]
*1584 counter_q\[7\]
*1585 counter_q\[8\]
*1586 counter_q\[9\]
*1587 net1
*1588 net10
*1589 net100
*1590 net1000
*1591 net1001
*1592 net1002
*1593 net1003
*1594 net1004
*1595 net1005
*1596 net1006
*1597 net1007
*1598 net1008
*1599 net1009
*1600 net101
*1601 net1010
*1602 net1011
*1603 net1012
*1604 net1013
*1605 net1014
*1606 net1015
*1607 net1016
*1608 net1017
*1609 net1018
*1610 net1019
*1611 net102
*1612 net1020
*1613 net1021
*1614 net1022
*1615 net1023
*1616 net1024
*1617 net1025
*1618 net1026
*1619 net1027
*1620 net1028
*1621 net1029
*1622 net103
*1623 net1030
*1624 net1031
*1625 net1032
*1626 net1033
*1627 net1034
*1628 net1035
*1629 net1036
*1630 net1037
*1631 net1038
*1632 net1039
*1633 net104
*1634 net1040
*1635 net1041
*1636 net1042
*1637 net1043
*1638 net1044
*1639 net1045
*1640 net1046
*1641 net1047
*1642 net1048
*1643 net1049
*1644 net105
*1645 net1050
*1646 net1051
*1647 net1052
*1648 net1053
*1649 net1054
*1650 net1055
*1651 net1056
*1652 net1057
*1653 net1058
*1654 net1059
*1655 net106
*1656 net1060
*1657 net1061
*1658 net1062
*1659 net1063
*1660 net1064
*1661 net1065
*1662 net1066
*1663 net1067
*1664 net1068
*1665 net1069
*1666 net107
*1667 net1070
*1668 net1071
*1669 net1072
*1670 net1073
*1671 net1074
*1672 net1075
*1673 net1076
*1674 net1077
*1675 net1078
*1676 net1079
*1677 net108
*1678 net1080
*1679 net1081
*1680 net1082
*1681 net1083
*1682 net1084
*1683 net1085
*1684 net1086
*1685 net1087
*1686 net1088
*1687 net1089
*1688 net109
*1689 net1090
*1690 net1091
*1691 net1092
*1692 net1093
*1693 net1094
*1694 net1095
*1695 net1096
*1696 net1097
*1697 net1098
*1698 net1099
*1699 net11
*1700 net110
*1701 net1100
*1702 net1101
*1703 net1102
*1704 net1103
*1705 net1104
*1706 net1105
*1707 net1106
*1708 net1107
*1709 net1108
*1710 net1109
*1711 net111
*1712 net1110
*1713 net1111
*1714 net1112
*1715 net1113
*1716 net1114
*1717 net1115
*1718 net1116
*1719 net1117
*1720 net1118
*1721 net1119
*1722 net112
*1723 net1120
*1724 net1121
*1725 net1122
*1726 net1123
*1727 net1124
*1728 net1125
*1729 net1126
*1730 net1127
*1731 net1128
*1732 net1129
*1733 net113
*1734 net1130
*1735 net1131
*1736 net1132
*1737 net1133
*1738 net1134
*1739 net1135
*1740 net1136
*1741 net1137
*1742 net1138
*1743 net1139
*1744 net114
*1745 net1140
*1746 net1141
*1747 net1142
*1748 net1143
*1749 net1144
*1750 net1145
*1751 net1146
*1752 net1147
*1753 net1148
*1754 net1149
*1755 net115
*1756 net1150
*1757 net1151
*1758 net1152
*1759 net1153
*1760 net1154
*1761 net1155
*1762 net1156
*1763 net1157
*1764 net1158
*1765 net1159
*1766 net116
*1767 net1160
*1768 net1161
*1769 net1162
*1770 net1163
*1771 net1164
*1772 net1165
*1773 net1166
*1774 net1167
*1775 net1168
*1776 net1169
*1777 net117
*1778 net1170
*1779 net1171
*1780 net1172
*1781 net1173
*1782 net1174
*1783 net1175
*1784 net1176
*1785 net1177
*1786 net1178
*1787 net1179
*1788 net118
*1789 net1180
*1790 net1181
*1791 net1182
*1792 net1183
*1793 net1184
*1794 net1185
*1795 net1186
*1796 net1187
*1797 net1188
*1798 net1189
*1799 net119
*1800 net1190
*1801 net1191
*1802 net1192
*1803 net1193
*1804 net1194
*1805 net1195
*1806 net1196
*1807 net1197
*1808 net1198
*1809 net1199
*1810 net12
*1811 net120
*1812 net1200
*1813 net1201
*1814 net1202
*1815 net1203
*1816 net1204
*1817 net1205
*1818 net1206
*1819 net1207
*1820 net1208
*1821 net1209
*1822 net121
*1823 net1210
*1824 net1211
*1825 net1212
*1826 net1213
*1827 net1214
*1828 net1215
*1829 net1216
*1830 net1217
*1831 net1218
*1832 net1219
*1833 net122
*1834 net1220
*1835 net1221
*1836 net1222
*1837 net1223
*1838 net1224
*1839 net1225
*1840 net1226
*1841 net1227
*1842 net1228
*1843 net1229
*1844 net123
*1845 net1230
*1846 net1231
*1847 net1232
*1848 net1233
*1849 net1234
*1850 net1235
*1851 net1236
*1852 net1237
*1853 net1238
*1854 net1239
*1855 net124
*1856 net1240
*1857 net1241
*1858 net1242
*1859 net1243
*1860 net1244
*1861 net1245
*1862 net1246
*1863 net1247
*1864 net1248
*1865 net1249
*1866 net125
*1867 net1250
*1868 net1251
*1869 net1252
*1870 net1253
*1871 net1254
*1872 net1255
*1873 net1256
*1874 net1257
*1875 net1258
*1876 net1259
*1877 net126
*1878 net1260
*1879 net1261
*1880 net1262
*1881 net1263
*1882 net1264
*1883 net1265
*1884 net1266
*1885 net1267
*1886 net1268
*1887 net1269
*1888 net127
*1889 net1270
*1890 net1271
*1891 net1272
*1892 net1273
*1893 net1274
*1894 net1275
*1895 net1276
*1896 net1277
*1897 net1278
*1898 net1279
*1899 net128
*1900 net1280
*1901 net1281
*1902 net1282
*1903 net1283
*1904 net1284
*1905 net1285
*1906 net1286
*1907 net1287
*1908 net1288
*1909 net1289
*1910 net129
*1911 net1290
*1912 net1291
*1913 net1292
*1914 net1293
*1915 net1294
*1916 net1295
*1917 net1296
*1918 net1297
*1919 net1298
*1920 net1299
*1921 net13
*1922 net130
*1923 net1300
*1924 net1301
*1925 net1302
*1926 net1303
*1927 net1304
*1928 net1305
*1929 net1306
*1930 net1307
*1931 net1308
*1932 net1309
*1933 net131
*1934 net1310
*1935 net1311
*1936 net1312
*1937 net1313
*1938 net1314
*1939 net1315
*1940 net1316
*1941 net1317
*1942 net1318
*1943 net1319
*1944 net132
*1945 net1320
*1946 net1321
*1947 net1322
*1948 net1323
*1949 net1324
*1950 net1325
*1951 net1326
*1952 net1327
*1953 net1328
*1954 net1329
*1955 net133
*1956 net1330
*1957 net1331
*1958 net1332
*1959 net1333
*1960 net1334
*1961 net1335
*1962 net1336
*1963 net1337
*1964 net1338
*1965 net1339
*1966 net134
*1967 net1340
*1968 net1341
*1969 net1342
*1970 net1343
*1971 net1344
*1972 net1345
*1973 net1346
*1974 net1347
*1975 net1348
*1976 net1349
*1977 net135
*1978 net1350
*1979 net1351
*1980 net1352
*1981 net1353
*1982 net1354
*1983 net1355
*1984 net1356
*1985 net1357
*1986 net1358
*1987 net1359
*1988 net136
*1989 net1360
*1990 net1361
*1991 net1362
*1992 net1363
*1993 net1364
*1994 net1365
*1995 net1366
*1996 net1367
*1997 net1368
*1998 net1369
*1999 net137
*2000 net1370
*2001 net1371
*2002 net1372
*2003 net1373
*2004 net1374
*2005 net1375
*2006 net1376
*2007 net1377
*2008 net1378
*2009 net1379
*2010 net138
*2011 net1380
*2012 net1381
*2013 net1382
*2014 net1383
*2015 net1384
*2016 net1385
*2017 net1386
*2018 net1387
*2019 net1388
*2020 net1389
*2021 net139
*2022 net1390
*2023 net1391
*2024 net1392
*2025 net1393
*2026 net1394
*2027 net1395
*2028 net1396
*2029 net1397
*2030 net1398
*2031 net1399
*2032 net14
*2033 net140
*2034 net1400
*2035 net1401
*2036 net1402
*2037 net1403