*SPEF "ieee 1481-1999"
*DESIGN "openram_demo"
*DATE "11:11:11 Fri 11 11, 1111"
*VENDOR "OpenRCX"
*PROGRAM "Parallel Extraction"
*VERSION "1.0"
*DESIGN_FLOW "NAME_SCOPE LOCAL" "PIN_CAP NONE"
*DIVIDER /
*DELIMITER :
*BUS_DELIMITER []
*T_UNIT 1 NS
*C_UNIT 1 PF
*R_UNIT 1 OHM
*L_UNIT 1 HENRY

*NAME_MAP
*1 io_in[0]
*2 io_in[10]
*3 io_in[11]
*4 io_in[12]
*5 io_in[13]
*6 io_in[14]
*7 io_in[15]
*8 io_in[16]
*9 io_in[17]
*10 io_in[18]
*11 io_in[19]
*12 io_in[1]
*13 io_in[20]
*14 io_in[21]
*15 io_in[22]
*16 io_in[23]
*17 io_in[24]
*18 io_in[25]
*19 io_in[26]
*20 io_in[27]
*21 io_in[28]
*22 io_in[29]
*23 io_in[2]
*24 io_in[30]
*25 io_in[31]
*26 io_in[32]
*27 io_in[33]
*28 io_in[34]
*29 io_in[35]
*30 io_in[36]
*31 io_in[37]
*32 io_in[3]
*33 io_in[4]
*34 io_in[5]
*35 io_in[6]
*36 io_in[7]
*37 io_in[8]
*38 io_in[9]
*39 net1464
*40 net1421
*41 net1422
*42 net1423
*43 net1424
*44 net1425
*45 net1426
*46 net1427
*47 net1428
*48 net1429
*49 net1430
*50 net1465
*51 net1431
*52 net1432
*53 net1433
*54 net1434
*55 net1435
*56 net1436
*57 net1437
*58 net1438
*59 net1439
*60 net1440
*61 net1466
*62 net1441
*63 net1442
*64 net1443
*65 net1444
*66 net1445
*67 net1446
*68 net1447
*69 net1306
*70 net1467
*71 net1468
*72 net1416
*73 net1417
*74 net1418
*75 net1419
*76 net1420
*77 net1307
*78 net1317
*79 net1318
*80 net1319
*81 net1320
*82 net1321
*83 net1322
*84 net1323
*85 net1324
*86 net1325
*87 net1326
*88 net1308
*89 net1327
*90 net1328
*91 net1329
*92 net1330
*93 net1331
*94 net1332
*95 net1333
*96 net1334
*97 net1335
*98 net1336
*99 net1309
*100 net1337
*101 net1338
*102 net1339
*103 net1340
*104 net1341
*105 net1342
*106 net1343
*107 net1344
*108 net1310
*109 net1311
*110 net1312
*111 net1313
*112 net1314
*113 net1315
*114 net1316
*115 net1345
*116 net1346
*117 net1347
*118 la_data_in[0]
*119 la_data_in[100]
*120 la_data_in[101]
*121 la_data_in[102]
*122 la_data_in[103]
*123 la_data_in[104]
*124 la_data_in[105]
*125 la_data_in[106]
*126 la_data_in[107]
*127 la_data_in[108]
*128 la_data_in[109]
*129 la_data_in[10]
*130 la_data_in[110]
*131 la_data_in[111]
*132 la_data_in[112]
*133 la_data_in[113]
*134 la_data_in[114]
*135 la_data_in[115]
*136 la_data_in[116]
*137 la_data_in[117]
*138 la_data_in[118]
*139 la_data_in[119]
*140 la_data_in[11]
*141 la_data_in[120]
*142 la_data_in[121]
*143 la_data_in[122]
*144 la_data_in[123]
*145 la_data_in[124]
*146 la_data_in[125]
*147 la_data_in[126]
*148 la_data_in[127]
*149 la_data_in[12]
*150 la_data_in[13]
*151 la_data_in[14]
*152 la_data_in[15]
*153 la_data_in[16]
*154 la_data_in[17]
*155 la_data_in[18]
*156 la_data_in[19]
*157 la_data_in[1]
*158 la_data_in[20]
*159 la_data_in[21]
*160 la_data_in[22]
*161 la_data_in[23]
*162 la_data_in[24]
*163 la_data_in[25]
*164 la_data_in[26]
*165 la_data_in[27]
*166 la_data_in[28]
*167 la_data_in[29]
*168 la_data_in[2]
*169 la_data_in[30]
*170 la_data_in[31]
*171 la_data_in[32]
*172 la_data_in[33]
*173 la_data_in[34]
*174 la_data_in[35]
*175 la_data_in[36]
*176 la_data_in[37]
*177 la_data_in[38]
*178 la_data_in[39]
*179 la_data_in[3]
*180 la_data_in[40]
*181 la_data_in[41]
*182 la_data_in[42]
*183 la_data_in[43]
*184 la_data_in[44]
*185 la_data_in[45]
*186 la_data_in[46]
*187 la_data_in[47]
*188 la_data_in[48]
*189 la_data_in[49]
*190 la_data_in[4]
*191 la_data_in[50]
*192 la_data_in[51]
*193 la_data_in[52]
*194 la_data_in[53]
*195 la_data_in[54]
*196 la_data_in[55]
*197 la_data_in[56]
*198 la_data_in[57]
*199 la_data_in[58]
*200 la_data_in[59]
*201 la_data_in[5]
*202 la_data_in[60]
*203 la_data_in[61]
*204 la_data_in[62]
*205 la_data_in[63]
*206 la_data_in[64]
*207 la_data_in[65]
*208 la_data_in[66]
*209 la_data_in[67]
*210 la_data_in[68]
*211 la_data_in[69]
*212 la_data_in[6]
*213 la_data_in[70]
*214 la_data_in[71]
*215 la_data_in[72]
*216 la_data_in[73]
*217 la_data_in[74]
*218 la_data_in[75]
*219 la_data_in[76]
*220 la_data_in[77]
*221 la_data_in[78]
*222 la_data_in[79]
*223 la_data_in[7]
*224 la_data_in[80]
*225 la_data_in[81]
*226 la_data_in[82]
*227 la_data_in[83]
*228 la_data_in[84]
*229 la_data_in[85]
*230 la_data_in[86]
*231 la_data_in[87]
*232 la_data_in[88]
*233 la_data_in[89]
*234 la_data_in[8]
*235 la_data_in[90]
*236 la_data_in[91]
*237 la_data_in[92]
*238 la_data_in[93]
*239 la_data_in[94]
*240 la_data_in[95]
*241 la_data_in[96]
*242 la_data_in[97]
*243 la_data_in[98]
*244 la_data_in[99]
*245 la_data_in[9]
*246 la_data_out[0]
*247 net1384
*248 net1385
*249 net1386
*250 net1387
*251 net1388
*252 net1389
*253 net1390
*254 net1391
*255 net1392
*256 net1393
*257 la_data_out[10]
*258 net1394
*259 net1395
*260 net1396
*261 net1397
*262 net1398
*263 net1399
*264 net1400
*265 net1401
*266 net1402
*267 net1403
*268 la_data_out[11]
*269 net1404
*270 net1405
*271 net1406
*272 net1407
*273 net1408
*274 net1409
*275 net1410
*276 net1411
*277 la_data_out[12]
*278 la_data_out[13]
*279 la_data_out[14]
*280 la_data_out[15]
*281 la_data_out[16]
*282 la_data_out[17]
*283 la_data_out[18]
*284 la_data_out[19]
*285 la_data_out[1]
*286 la_data_out[20]
*287 la_data_out[21]
*288 la_data_out[22]
*289 la_data_out[23]
*290 la_data_out[24]
*291 la_data_out[25]
*292 la_data_out[26]
*293 la_data_out[27]
*294 la_data_out[28]
*295 la_data_out[29]
*296 la_data_out[2]
*297 la_data_out[30]
*298 la_data_out[31]
*299 la_data_out[32]
*300 la_data_out[33]
*301 la_data_out[34]
*302 la_data_out[35]
*303 la_data_out[36]
*304 la_data_out[37]
*305 la_data_out[38]
*306 la_data_out[39]
*307 la_data_out[3]
*308 la_data_out[40]
*309 la_data_out[41]
*310 la_data_out[42]
*311 la_data_out[43]
*312 la_data_out[44]
*313 la_data_out[45]
*314 la_data_out[46]
*315 la_data_out[47]
*316 la_data_out[48]
*317 la_data_out[49]
*318 la_data_out[4]
*319 la_data_out[50]
*320 la_data_out[51]
*321 la_data_out[52]
*322 la_data_out[53]
*323 la_data_out[54]
*324 la_data_out[55]
*325 la_data_out[56]
*326 la_data_out[57]
*327 la_data_out[58]
*328 la_data_out[59]
*329 la_data_out[5]
*330 la_data_out[60]
*331 la_data_out[61]
*332 la_data_out[62]
*333 la_data_out[63]
*334 net1348
*335 net1349
*336 net1350
*337 net1351
*338 net1352
*339 net1353
*340 la_data_out[6]
*341 net1354
*342 net1355
*343 net1356
*344 net1357
*345 net1358
*346 net1359
*347 net1360
*348 net1361
*349 net1362
*350 net1363
*351 la_data_out[7]
*352 net1364
*353 net1365
*354 net1366
*355 net1367
*356 net1368
*357 net1369
*358 net1370
*359 net1371
*360 net1372
*361 net1373
*362 la_data_out[8]
*363 net1374
*364 net1375
*365 net1376
*366 net1377
*367 net1378
*368 net1379
*369 net1380
*370 net1381
*371 net1382
*372 net1383
*373 la_data_out[9]
*374 la_oenb[0]
*375 la_oenb[100]
*376 la_oenb[101]
*377 la_oenb[102]
*378 la_oenb[103]
*379 la_oenb[104]
*380 la_oenb[105]
*381 la_oenb[106]
*382 la_oenb[107]
*383 la_oenb[108]
*384 la_oenb[109]
*385 la_oenb[10]
*386 la_oenb[110]
*387 la_oenb[111]
*388 la_oenb[112]
*389 la_oenb[113]
*390 la_oenb[114]
*391 la_oenb[115]
*392 la_oenb[116]
*393 la_oenb[117]
*394 la_oenb[118]
*395 la_oenb[119]
*396 la_oenb[11]
*397 la_oenb[120]
*398 la_oenb[121]
*399 la_oenb[122]
*400 la_oenb[123]
*401 la_oenb[124]
*402 la_oenb[125]
*403 la_oenb[126]
*404 la_oenb[127]
*405 la_oenb[12]
*406 la_oenb[13]
*407 la_oenb[14]
*408 la_oenb[15]
*409 la_oenb[16]
*410 la_oenb[17]
*411 la_oenb[18]
*412 la_oenb[19]
*413 la_oenb[1]
*414 la_oenb[20]
*415 la_oenb[21]
*416 la_oenb[22]
*417 la_oenb[23]
*418 la_oenb[24]
*419 la_oenb[25]
*420 la_oenb[26]
*421 la_oenb[27]
*422 la_oenb[28]
*423 la_oenb[29]
*424 la_oenb[2]
*425 la_oenb[30]
*426 la_oenb[31]
*427 la_oenb[32]
*428 la_oenb[33]
*429 la_oenb[34]
*430 la_oenb[35]
*431 la_oenb[36]
*432 la_oenb[37]
*433 la_oenb[38]
*434 la_oenb[39]
*435 la_oenb[3]
*436 la_oenb[40]
*437 la_oenb[41]
*438 la_oenb[42]
*439 la_oenb[43]
*440 la_oenb[44]
*441 la_oenb[45]
*442 la_oenb[46]
*443 la_oenb[47]
*444 la_oenb[48]
*445 la_oenb[49]
*446 la_oenb[4]
*447 la_oenb[50]
*448 la_oenb[51]
*449 la_oenb[52]
*450 la_oenb[53]
*451 la_oenb[54]
*452 la_oenb[55]
*453 la_oenb[56]
*454 la_oenb[57]
*455 la_oenb[58]
*456 la_oenb[59]
*457 la_oenb[5]
*458 la_oenb[60]
*459 la_oenb[61]
*460 la_oenb[62]
*461 la_oenb[63]
*462 la_oenb[64]
*463 la_oenb[65]
*464 la_oenb[66]
*465 la_oenb[67]
*466 la_oenb[68]
*467 la_oenb[69]
*468 la_oenb[6]
*469 la_oenb[70]
*470 la_oenb[71]
*471 la_oenb[72]
*472 la_oenb[73]
*473 la_oenb[74]
*474 la_oenb[75]
*475 la_oenb[76]
*476 la_oenb[77]
*477 la_oenb[78]
*478 la_oenb[79]
*479 la_oenb[7]
*480 la_oenb[80]
*481 la_oenb[81]
*482 la_oenb[82]
*483 la_oenb[83]
*484 la_oenb[84]
*485 la_oenb[85]
*486 la_oenb[86]
*487 la_oenb[87]
*488 la_oenb[88]
*489 la_oenb[89]
*490 la_oenb[8]
*491 la_oenb[90]
*492 la_oenb[91]
*493 la_oenb[92]
*494 la_oenb[93]
*495 la_oenb[94]
*496 la_oenb[95]
*497 la_oenb[96]
*498 la_oenb[97]
*499 la_oenb[98]
*500 la_oenb[99]
*501 la_oenb[9]
*504 wb_clk_i
*505 wb_rst_i
*506 wbs_ack_o
*507 wbs_adr_i[0]
*508 wbs_adr_i[10]
*509 wbs_adr_i[11]
*510 wbs_adr_i[12]
*511 wbs_adr_i[13]
*512 wbs_adr_i[14]
*513 wbs_adr_i[15]
*514 wbs_adr_i[16]
*515 wbs_adr_i[17]
*516 wbs_adr_i[18]
*517 wbs_adr_i[19]
*518 wbs_adr_i[1]
*519 wbs_adr_i[20]
*520 wbs_adr_i[21]
*521 wbs_adr_i[22]
*522 wbs_adr_i[23]
*523 wbs_adr_i[24]
*524 wbs_adr_i[25]
*525 wbs_adr_i[26]
*526 wbs_adr_i[27]
*527 wbs_adr_i[28]
*528 wbs_adr_i[29]
*529 wbs_adr_i[2]
*530 wbs_adr_i[30]
*531 wbs_adr_i[31]
*532 wbs_adr_i[3]
*533 wbs_adr_i[4]
*534 wbs_adr_i[5]
*535 wbs_adr_i[6]
*536 wbs_adr_i[7]
*537 wbs_adr_i[8]
*538 wbs_adr_i[9]
*539 wbs_cyc_i
*540 wbs_dat_i[0]
*541 wbs_dat_i[10]
*542 wbs_dat_i[11]
*543 wbs_dat_i[12]
*544 wbs_dat_i[13]
*545 wbs_dat_i[14]
*546 wbs_dat_i[15]
*547 wbs_dat_i[16]
*548 wbs_dat_i[17]
*549 wbs_dat_i[18]
*550 wbs_dat_i[19]
*551 wbs_dat_i[1]
*552 wbs_dat_i[20]
*553 wbs_dat_i[21]
*554 wbs_dat_i[22]
*555 wbs_dat_i[23]
*556 wbs_dat_i[24]
*557 wbs_dat_i[25]
*558 wbs_dat_i[26]
*559 wbs_dat_i[27]
*560 wbs_dat_i[28]
*561 wbs_dat_i[29]
*562 wbs_dat_i[2]
*563 wbs_dat_i[30]
*564 wbs_dat_i[31]
*565 wbs_dat_i[3]
*566 wbs_dat_i[4]
*567 wbs_dat_i[5]
*568 wbs_dat_i[6]
*569 wbs_dat_i[7]
*570 wbs_dat_i[8]
*571 wbs_dat_i[9]
*572 wbs_dat_o[0]
*573 wbs_dat_o[10]
*574 wbs_dat_o[11]
*575 wbs_dat_o[12]
*576 wbs_dat_o[13]
*577 wbs_dat_o[14]
*578 wbs_dat_o[15]
*579 wbs_dat_o[16]
*580 wbs_dat_o[17]
*581 wbs_dat_o[18]
*582 wbs_dat_o[19]
*583 wbs_dat_o[1]
*584 wbs_dat_o[20]
*585 wbs_dat_o[21]
*586 wbs_dat_o[22]
*587 wbs_dat_o[23]
*588 wbs_dat_o[24]
*589 wbs_dat_o[25]
*590 wbs_dat_o[26]
*591 wbs_dat_o[27]
*592 wbs_dat_o[28]
*593 wbs_dat_o[29]
*594 wbs_dat_o[2]
*595 wbs_dat_o[30]
*596 wbs_dat_o[31]
*597 wbs_dat_o[3]
*598 wbs_dat_o[4]
*599 wbs_dat_o[5]
*600 wbs_dat_o[6]
*601 wbs_dat_o[7]
*602 wbs_dat_o[8]
*603 wbs_dat_o[9]
*604 wbs_sel_i[0]
*605 wbs_sel_i[1]
*606 wbs_sel_i[2]
*607 wbs_sel_i[3]
*608 wbs_stb_i
*609 wbs_we_i
*610 _000_
*611 _001_
*612 _002_
*613 _003_
*614 _004_
*615 _005_
*616 _006_
*617 _007_
*618 _008_
*619 _009_
*620 _010_
*621 _011_
*622 _012_
*623 _013_
*624 _014_
*625 _015_
*626 _016_
*627 _017_
*628 _018_
*629 _019_
*630 _020_
*631 _021_
*632 _022_
*633 _023_
*634 _024_
*635 _025_
*636 _026_
*637 _027_
*638 _028_
*639 _029_
*640 _030_
*641 _031_
*642 _032_
*643 _033_
*644 _034_
*645 _035_
*646 _036_
*647 _037_
*648 _038_
*649 _039_
*650 _040_
*651 _041_
*652 _042_
*653 _043_
*654 _044_
*655 _045_
*656 _046_
*657 _047_
*658 _048_
*659 _049_
*660 _050_
*661 _051_
*662 _052_
*663 _053_
*664 _054_
*665 _055_
*666 _056_
*667 _057_
*668 _058_
*669 _059_
*670 _060_
*671 _061_
*672 _062_
*673 _063_
*674 _064_
*675 _065_
*676 _066_
*677 _067_
*678 _068_
*679 _069_
*680 _070_
*681 _071_
*682 _072_
*683 _073_
*684 _074_
*685 _075_
*686 _076_
*687 _077_
*688 _078_
*689 _079_
*690 _080_
*691 _081_
*692 _082_
*693 _083_
*694 _084_
*695 _085_
*696 _086_
*697 _087_
*698 _088_
*699 _089_
*700 _090_
*701 _091_
*702 _092_
*703 _093_
*704 _094_
*705 _095_
*706 _096_
*707 _097_
*708 _098_
*709 _099_
*710 _100_
*711 _101_
*712 _102_
*713 _103_
*714 _104_
*715 _105_
*716 _106_
*717 _107_
*718 _108_
*719 _109_
*720 _110_
*721 _111_
*722 _112_
*723 _113_
*724 _114_
*725 _115_
*726 _116_
*727 _117_
*728 _118_
*729 _119_
*730 _120_
*731 _121_
*732 _122_
*733 _123_
*734 _124_
*735 _125_
*736 _126_
*737 _127_
*738 _128_
*739 _129_
*740 clk
*741 clknet_0_clk
*742 clknet_1_0_0_clk
*743 clknet_1_0_1_clk
*744 clknet_1_0_2_clk
*745 clknet_1_1_0_clk
*746 clknet_1_1_1_clk
*747 clknet_1_1_2_clk
*748 net1
*749 net10
*750 net100
*751 net1000
*752 net1001
*753 net1002
*754 net1003
*755 net1004
*756 net1005
*757 net1006
*758 net1007
*759 net1008
*760 net1009
*761 net101
*762 net1010
*763 net1011
*764 net1012
*765 net1013
*766 net1014
*767 net1015
*768 net1016
*769 net1017
*770 net1018
*771 net1019
*772 net102
*773 net1020
*774 net1021
*775 net1022
*776 net1023
*777 net1024
*778 net1025
*779 net1026
*780 net1027
*781 net1028
*782 net1029
*783 net103
*784 net1030
*785 net1031
*786 net1032
*787 net1033
*788 net1034
*789 net1035
*790 net1036
*791 net1037
*792 net1038
*793 net1039
*794 net104
*795 net1040
*796 net1041
*797 net1042
*798 net1043
*799 net1044
*800 net1045
*801 net1046
*802 net1047
*803 net1048
*804 net1049
*805 net105
*806 net1050
*807 net1051
*808 net1052
*809 net1053
*810 net1054
*811 net1055
*812 net1056
*813 net1057
*814 net1058
*815 net1059
*816 net106
*817 net1060
*818 net1061
*819 net1062
*820 net1063
*821 net1064
*822 net1065
*823 net1066
*824 net1067
*825 net1068
*826 net1069
*827 net107
*828 net1070
*829 net1071
*830 net1072
*831 net1073
*832 net1074
*833 net1075
*834 net1076
*835 net1077
*836 net1078
*837 net1079
*838 net108
*839 net1080
*840 net1081
*841 net1082
*842 net1083
*843 net1084
*844 net1085
*845 net1086
*846 net1087
*847 net1088
*848 net1089
*849 net109
*850 net1090
*851 net1091
*852 net1092
*853 net1093
*854 net1094
*855 net1095
*856 net1096
*857 net1097
*858 net1098
*859 net1099
*860 net11
*861 net110
*862 net1100
*863 net1101
*864 net1102
*865 net1103
*866 net1104
*867 net1105
*868 net1106
*869 net1107
*870 net1108
*871 net1109
*872 net111
*873 net1110
*874 net1111
*875 net1112
*876 net1113
*877 net1114
*878 net1115
*879 net1116
*880 net1117
*881 net1118
*882 net1119
*883 net112
*884 net1120
*885 net1121
*886 net1122
*887 net1123
*888 net1124
*889 net1125
*890 net1126
*891 net1127
*892 net1128
*893 net1129
*894 net113
*895 net1130
*896 net1131
*897 net1132
*898 net1133
*899 net1134
*900 net1135
*901 net1136
*902 net1137
*903 net1138
*904 net1139
*905 net114
*906 net1140
*907 net1141
*908 net1142
*909 net1143
*910 net1144
*911 net1145
*912 net1146
*913 net1147
*914 net1148
*915 net1149
*916 net115
*917 net1150
*918 net1151
*919 net1152
*920 net1153
*921 net1154
*922 net1155
*923 net1156
*924 net1157
*925 net1158
*926 net1159
*927 net116
*928 net1160
*929 net1161
*930 net1162
*931 net1163
*932 net1164
*933 net1165
*934 net1166
*935 net1167
*936 net1168
*937 net1169
*938 net117
*939 net1170
*940 net1171
*941 net1172
*942 net1173
*943 net1174
*944 net1175
*945 net1176
*946 net1177
*947 net1178
*948 net1179
*949 net118
*950 net1180
*951 net1181
*952 net1182
*953 net1183
*954 net1184
*955 net1185
*956 net1186
*957 net1187
*958 net1188
*959 net1189
*960 net119
*961 net1190
*962 net1191
*963 net1192
*964 net1193
*965 net1194
*966 net1195
*967 net1196
*968 net1197
*969 net1198
*970 net1199
*971 net12
*972 net120
*973 net1200
*974 net1201
*975 net1202
*976 net1203
*977 net1204
*978 net1205
*979 net1206
*980 net1207
*981 net1208
*982 net1209
*983 net121
*984 net1210
*985 net1211
*986 net1212
*987 net1213
*988 net1214
*989 net1215
*990 net1216
*991 net1217
*992 net1218
*993 net1219
*994 net122
*995 net1220
*996 net1221
*997 net1222
*998 net1223
*999 net1224
*1000 net1225
*1001 net1226
*1002 net1227
*1003 net1228
*1004 net1229
*1005 net123
*1006 net1230
*1007 net1231
*1008 net1232
*1009 net1233
*1010 net1234
*1011 net1235
*1012 net1236
*1013 net1237
*1014 net1238
*1015 net1239
*1016 net124
*1017 net1240
*1018 net1241
*1019 net1242
*1020 net1243
*1021 net1244
*1022 net1245
*1023 net1246
*1024 net1247
*1025 net1248
*1026 net1249
*1027 net125
*1028 net1250
*1029 net1251
*1030 net1252
*1031 net1253
*1032 net1254
*1033 net1255
*1034 net1256
*1035 net1257
*1036 net1258
*1037 net1259
*1038 net126
*1039 net1260
*1040 net1261
*1041 net1262
*1042 net1263
*1043 net1264
*1044 net1265
*1045 net1266
*1046 net1267
*1047 net1268
*1048 net1269
*1049 net127
*1050 net1270
*1051 net1271
*1052 net1272
*1053 net1273
*1054 net1274
*1055 net1275
*1056 net1276
*1057 net1277
*1058 net1278
*1059 net1279
*1060 net128
*1061 net1280
*1062 net1281
*1063 net1282
*1064 net1283
*1065 net1284
*1066 net1285
*1067 net1286
*1068 net1287
*1069 net1288
*1070 net1289
*1071 net129
*1072 net1290
*1073 net1291
*1074 net1292
*1075 net1293
*1076 net1294
*1077 net1295
*1078 net1296
*1079 net1297
*1080 net1298
*1081 net1299
*1082 net13
*1083 net130
*1084 net1300
*1085 net1301
*1086 net1302
*1087 net1303
*1088 net1304
*1089 net1305
*1090 net131
*1091 net132
*1092 net133
*1093 net134
*1094 net135
*1095 net136
*1096 net137
*1097 net138
*1098 net139
*1099 net14
*1100 net140
*1101 net141
*1102 net1412
*1103 net1413
*1104 net1414
*1105 net1415
*1106 net142
*1107 net143
*1108 net144
*1109 net1448
*1110 net1449
*1111 net145
*1112 net1450
*1113 net1451
*1114 net1452
*1115 net1453
*1116 net1454
*1117 net1455
*1118 net1456
*1119 net1457
*1120 net1458
*1121 net1459
*1122 net146
*1123 net1460
*1124 net1461
*1125 net1462
*1126 net1463
*1127 net1469
*1128 net147
*1129 net1470
*1130 net1471
*1131 net1472
*1132 net1473
*1133 net1474
*1134 net1475
*1135 net1476
*1136 net1477
*1137 net1478
*1138 net1479
*1139 net148
*1140 net1480
*1141 net1481
*1142 net149
*1143 net15
*1144 net150
*1145 net151
*1146 net152
*1147 net153
*1148 net154
*1149 net155
*1150 net156
*1151 net157
*1152 net158
*1153 net159
*1154 net16
*1155 net160
*1156 net161
*1157 net162
*1158 net163
*1159 net164
*1160 net165
*1161 net166
*1162 net167
*1163 net168
*1164 net169
*1165 net17
*1166 net170
*1167 net171
*1168 net172
*1169 net173
*1170 net174
*1171 net175
*1172 net176
*1173 net177
*1174 net178
*1175 net179
*1176 net18
*1177 net180
*1178 net181
*1179 net182
*1180 net183
*1181 net184
*1182 net185
*1183 net186
*1184 net187
*1185 net188
*1186 net189
*1187 net19
*1188 net190
*1189 net191
*1190 net192
*1191 net193
*1192 net194
*1193 net195
*1194 net196
*1195 net197
*1196 net198
*1197 net199
*1198 net2
*1199 net20
*1200 net200
*1201 net201
*1202 net202
*1203 net203
*1204 net204
*1205 net205
*1206 net206
*1207 net207
*1208 net208
*1209 net209
*1210 net21
*1211 net210
*1212 net211
*1213 net212
*1214 net213
*1215 net214
*1216 net215
*1217 net216
*1218 net217
*1219 net218
*1220 net219
*1221 net22
*1222 net220
*1223 net221
*1224 net222
*1225 net223
*1226 net224
*1227 net225
*1228 net226
*1229 net227
*1230 net228
*1231 net229
*1232 net23
*1233 net230
*1234 net231
*1235 net232
*1236 net233
*1237 net234
*1238 net235
*1239 net236
*1240 net237
*1241 net238
*1242 net239
*1243 net24
*1244 net240
*1245 net241
*1246 net242
*1247 net243
*1248 net244
*1249 net245
*1250 net246
*1251 net247
*1252 net248
*1253 net249
*1254 net25
*1255 net250
*1256 net251
*1257 net252
*1258 net253
*1259 net254
*1260 net255
*1261 net256
*1262 net257
*1263 net258
*1264 net259
*1265 net26
*1266 net260
*1267 net261
*1268 net262
*1269 net263
*1270 net264
*1271 net265
*1272 net266
*1273 net267
*1274 net268
*1275 net269
*1276 net27
*1277 net270
*1278 net271
*1279 net272
*1280 net273
*1281 net274
*1282 net275
*1283 net276
*1284 net277
*1285 net278
*1286 net279
*1287 net28
*1288 net280
*1289 net281
*1290 net282
*1291 net283
*1292 net284
*1293 net285
*1294 net286
*1295 net287
*1296 net288
*1297 net289
*1298 net29
*1299 net290
*1300 net291
*1301 net292
*1302 net293
*1303 net294
*1304 net295
*1305 net296
*1306 net297
*1307 net298
*1308 net299
*1309 net3
*1310 net30
*1311 net300
*1312 net301
*1313 net302
*1314 net303
*1315 net304
*1316 net305
*1317 net306
*1318 net307
*1319 net308
*1320 net309
*1321 net31
*1322 net310
*1323 net311
*1324 net312
*1325 net313
*1326 net314
*1327 net315
*1328 net316
*1329 net317
*1330 net318
*1331 net319
*1332 net32
*1333 net320
*1334 net321
*1335 net322
*1336 net323
*1337 net324
*1338 net325
*1339 net326
*1340 net327
*1341 net328
*1342 net329
*1343 net33
*1344 net330
*1345 net331
*1346 net332
*1347 net333
*1348 net334
*1349 net335
*1350 net336
*1351 net337
*1352 net338
*1353 net339
*1354 net34
*1355 net340
*1356 net341
*1357 net342
*1358 net343
*1359 net344
*1360 net345
*1361 net346
*1362 net347
*1363 net348
*1364 net349
*1365 net35
*1366 net350
*1367 net351
*1368 net352
*1369 net353
*1370 net354
*1371 net355
*1372 net356
*1373 net357
*1374 net358
*1375 net359
*1376 net36
*1377 net360
*1378 net361
*1379 net362
*1380 net363
*1381 net364
*1382 net365
*1383 net366
*1384 net367
*1385 net368
*1386 net369
*1387 net37
*1388 net370
*1389 net371
*1390 net372
*1391 net373
*1392 net374
*1393 net375
*1394 net376
*1395 net377
*1396 net378
*1397 net379
*1398 net38
*1399 net380
*1400 net381
*1401 net382
*1402 net383
*1403 net384
*1404 net385
*1405 net386
*1406 net387
*1407 net388
*1408 net389
*1409 net39
*1410 net390
*1411 net391
*1412 net392
*1413 net393
*1414 net394
*1415 net395
*1416 net396
*1417 net397
*1418 net398
*1419 net399
*1420 net4
*1421 net40
*1422 net400
*1423 net401
*1424 net402
*1425 net403
*1426 net404
*1427 net405
*1428 net406
*1429 net407
*1430 net408
*1431 net409
*1432 net41
*1433 net410
*1434 net411
*1435 net412
*1436 net413
*1437 net414
*1438 net415
*1439 net416
*1440 net417
*1441 net418
*1442 net419
*1443 net42
*1444 net420
*1445 net421
*1446 net422
*1447 net423
*1448 net424
*1449 net425
*1450 net426
*1451 net427
*1452 net428
*1453 net429
*1454 net43
*1455 net430
*1456 net431
*1457 net432
*1458 net433
*1459 net434
*1460 net435
*1461 net436
*1462 net437
*1463 net438
*1464 net439
*1465 net44
*1466 net440
*1467 net441
*1468 net442
*1469 net443
*1470 net444
*1471 net445
*1472 net446
*1473 net447
*1474 net448
*1475 net449
*1476 net45
*1477 net450
*1478 net451
*1479 net452
*1480 net453
*1481 net454
*1482 net455
*1483 net456
*1484 net457
*1485 net458
*1486 net459
*1487 net46
*1488 net460
*1489 net461
*1490 net462
*1491 net463
*1492 net464
*1493 net465
*1494 net466
*1495 net467
*1496 net468
*1497 net469
*1498 net47
*1499 net470
*1500 net471
*1501 net472
*1502 net473
*1503 net474
*1504 net475
*1505 net476
*1506 net477
*1507 net478
*1508 net479
*1509 net48
*1510 net480
*1511 net481
*1512 net482
*1513 net483
*1514 net484
*1515 net485
*1516 net486
*1517 net487
*1518 net488
*1519 net489
*1520 net49
*1521 net490
*1522 net491
*1523 net492
*1524 net493
*1525 net494
*1526 net495
*1527 net496
*1528 net497
*1529 net498
*1530 net499
*1531 net5
*1532 net50
*1533 net500
*1534 net501
*1535 net502
*1536 net503
*1537 net504
*1538 net505
*1539 net506
*1540 net507
*1541 net508
*1542 net509
*1543 net51
*1544 net510
*1545 net511
*1546 net512
*1547 net513
*1548 net514
*1549 net515
*1550 net516
*1551 net517
*1552 net518
*1553 net519
*1554 net52
*1555 net520
*1556 net521
*1557 net522
*1558 net523
*1559 net524
*1560 net525
*1561 net526
*1562 net527
*1563 net528
*1564 net529
*1565 net53
*1566 net530
*1567 net531
*1568 net532
*1569 net533
*1570 net534
*1571 net535
*1572 net536
*1573 net537
*1574 net538
*1575 net539
*1576 net54
*1577 net540
*1578 net541
*1579 net542
*1580 net543
*1581 net544
*1582 net545
*1583 net546
*1584 net547
*1585 net548
*1586 net549
*1587 net55
*1588 net550
*1589 net551
*1590 net552
*1591 net553
*1592 net554
*1593 net555
*1594 net556
*1595 net557
*1596 net558
*1597 net559
*1598 net56
*1599 net560
*1600 net561
*1601 net562
*1602 net563
*1603 net564
*1604 net565
*1605 net566
*1606 net567
*1607 net568
*1608 net569
*1609 net57
*1610 net570
*1611 net571
*1612 net572
*1613 net573
*1614 net574
*1615 net575
*1616 net576
*1617 net577
*1618 net578
*1619 net579
*1620 net58
*1621 net580
*1622 net581
*1623 net582
*1624 net583
*1625 net584
*1626 net585
*1627 net586
*1628 net587
*1629 net588
*1630 net589
*1631 net59
*1632 net590
*1633 net591
*1634 net592
*1635 net593
*1636 net594
*1637 net595
*1638 net596
*1639 net597
*1640 net598
*1641 net599
*1642 net6
*1643 net60
*1644 net600
*1645 net601
*1646 net602
*1647 net603
*1648 net604
*1649 net605
*1650 net606
*1651 net607
*1652 net608
*1653 net609
*1654 net61
*1655 net610
*1656 net611
*1657 net612
*1658 net613
*1659 net614
*1660 net615
*1661 net616
*1662 net617
*1663 net618
*1664 net619
*1665 net62
*1666 net620
*1667 net621
*1668 net622
*1669 net623
*1670 net624
*1671 net625
*1672 net626
*1673 net627
*1674 net628
*1675 net629
*1676 net63
*1677 net630
*1678 net631
*1679 net632
*1680 net633
*1681 net634
*1682 net635
*1683 net636
*1684 net637
*1685 net638
*1686 net639
*1687 net64
*1688 net640
*1689 net641
*1690 net642
*1691 net643
*1692 net644
*1693 net645
*1694 net646
*1695 net647
*1696 net648
*1697 net649
*1698 net65
*1699 net650
*1700 net651
*1701 net652
*1702 net653
*1703 net654
*1704 net655
*1705 net656
*1706 net657
*1707 net658
*1708 net659
*1709 net66
*1710 net660
*1711 net661
*1712 net662
*1713 net663
*1714 net664
*1715 net665
*1716 net666
*1717 net667
*1718 net668
*1719 net669
*1720 net67
*1721 net670
*1722 net671
*1723 net672
*1724 net673
*1725 net674
*1726 net675
*1727 net676
*1728 net677
*1729 net678
*1730 net679
*1731 net68
*1732 net680
*1733 net681
*1734 net682
*1735 net683
*1736 net684
*1737 net685
*1738 net686
*1739 net687
*1740 net688
*1741 net689
*1742 net69
*1743 net690
*1744 net691
*1745 net692
*1746 net693
*1747 net694
*1748 net695
*1749 net696
*1750 net697
*1751 net698
*1752 net699
*1753 net7
*1754 net70
*1755 net700
*1756 net701
*1757 net702
*1758 net703
*1759 net704
*1760 net705
*1761 net706
*1762 net707
*1763 net708
*1764 net709
*1765 net71
*1766 net710
*1767 net711
*1768 net712
*1769 net713
*1770 net714
*1771 net715
*1772 net716
*1773 net717
*1774 net718
*1775 net719
*1776 net72
*1777 net720
*1778 net721
*1779 net722
*1780 net723
*1781 net724
*1782 net725
*1783 net726
*1784 net727
*1785 net728
*1786 net729
*1787 net73
*1788 net730
*1789 net731
*1790 net732
*1791 net733
*1792 net734
*1793 net735
*1794 net736
*1795 net737
*1796 net738
*1797 net739
*1798 net74
*1799 net740
*1800 net741
*1801 net742
*1802 net743
*1803 net744
*1804 net745
*1805 net746
*1806 net747
*1807 net748
*1808 net749
*1809 net75
*1810 net750
*1811 net751
*1812 net752
*1813 net753
*1814 net754
*1815 net755
*1816 net756
*1817 net757
*1818 net758
*1819 net759
*1820 net76
*1821 net760
*1822 net761
*1823 net762
*1824 net763
*1825 net764
*1826 net765
*1827 net766
*1828 net767
*1829 net768
*1830 net769
*1831 net77
*1832 net770
*1833 net771
*1834 net772
*1835 net773
*1836 net774
*1837 net775
*1838 net776
*1839 net777
*1840 net778
*1841 net779
*1842 net78
*1843 net780
*1844 net781
*1845 net782
*1846 net783
*1847 net784
*1848 net785
*1849 net786
*1850 net787
*1851 net788
*1852 net789
*1853 net79
*1854 net790
*1855 net791
*1856 net792
*1857 net793
*1858 net794
*1859 net795
*1860 net796
*1861 net797
*1862 net798
*1863 net799
*1864 net8
*1865 net80
*1866 net800
*1867 net801
*1868 net802
*1869 net803
*1870 net804
*1871 net805
*1872 net806
*1873 net807
*1874 net808
*1875 net809
*1876 net81
*1877 net810
*1878 net811
*1879 net812
*1880 net813
*1881 net814
*1882 net815
*1883 net816
*1884 net817
*1885 net818
*1886 net819
*1887 net82
*1888 net820
*1889 net821
*1890 net822
*1891 net823
*1892 net824
*1893 net825
*1894 net826
*1895 net827
*1896 net828
*1897 net829
*1898 net83
*1899 net830
*1900 net831
*1901 net832
*1902 net833
*1903 net834
*1904 net835
*1905 net836
*1906 net837
*1907 net838
*1908 net839
*1909 net84
*1910 net840
*1911 net841
*1912 net842
*1913 net843
*1914 net844
*1915 net845
*1916 net846
*1917 net847
*1918 net848
*1919 net849
*1920 net85
*1921 net850
*1922 net851
*1923 net852
*1924 net853
*1925 net854
*1926 net855
*1927 net856
*1928 net857
*1929 net858
*1930 net859
*1931 net86
*1932 net860
*1933 net861
*1934 net862
*1935 net863
*1936 net864
*1937 net865
*1938 net866
*1939 net867
*1940 net868
*1941 net869
*1942 net87
*1943 net870
*1944 net871
*1945 net872
*1946 net873
*1947 net874
*1948 net875
*1949 net876
*1950 net877
*1951 net878
*1952 net879
*1953 net88
*1954 net880
*1955 net881
*1956 net882
*1957 net883
*1958 net884
*1959 net885
*1960 net886
*1961 net887
*1962 net888
*1963 net889
*1964 net89
*1965 net890
*1966 net891
*1967 net892
*1968 net893
*1969 net894
*1970 net895
*1971 net896
*1972 net897
*1973 net898
*1974 net899
*1975 net9
*1976 net90
*1977 net900
*1978 net901
*1979 net902
*1980 net903
*1981 net904
*1982 net905
*1983 net906
*1984 net907
*1985 net908
*1986 net909
*1987 net91
*1988 net910
*1989 net911
*1990 net912
*1991 net913
*1992 net914
*1993 net915
*1994 net916
*1995 net917
*1996 net918
*1997 net919
*1998 net92
*1999 net920
*2000 net921
*2001 net922
*2002 net923
*2003 net924
*2004 net925
*2005 net926
*2006 net927
*2007 net928
*2008 net929
*2009 net93
*2010 net930
*2011 net931
*2012 net932
*2013 net933
*2014 net934
*2015 net935
*2016 net936
*2017 net937
*2018 net938
*2019 net939
*2020 net94
*2021 net940
*2022 net941
*2023 net942
*2024 net943
*2025 net944
*2026 net945
*2027 net946
*2028 net947
*2029 net948
*2030 net949
*2031 net95
*2032 net950
*2033 net951
*2034 net952
*2035 net953
*2036 net954
*2037 net955
*2038 net956
*2039 net957
*2040 net958
*2041 net959
*2042 net96
*2043 net960
*2044 net961
*2045 net962
*2046 net963
*2047 net964
*2048 net965
*2049 net966
*2050 net967
*2051 net968
*2052 net969
*2053 net97
*2054 net970
*2055 net971
*2056 net972
*2057 net973
*2058 net974
*2059 net975
*2060 net976
*2061 net977
*2062 net978
*2063 net979
*2064 net98
*2065 net980
*2066 net981
*2067 net982
*2068 net983
*2069 net984
*2070 net985
*2071 net986
*2072 net987
*2073 net988
*2074 net989
*2075 net99
*2076 net990
*2077 net991
*2078 net992
*2079 net993
*2080 net994
*2081 net995
*2082 net996
*2083 net997
*2084 net998
*2085 net999
*2086 sram0_dout0\[0\]\[0\]
*2087 sram0_dout0\[0\]\[10\]
*2088 sram0_dout0\[0\]\[11\]
*2089 sram0_dout0\[0\]\[12\]
*2090 sram0_dout0\[0\]\[13\]
*2091 sram0_dout0\[0\]\[14\]
*2092 sram0_dout0\[0\]\[15\]
*2093 sram0_dout0\[0\]\[16\]
*2094 sram0_dout0\[0\]\[17\]
*2095 sram0_dout0\[0\]\[18\]
*2096 sram0_dout0\[0\]\[19\]
*2097 sram0_dout0\[0\]\[1\]