*SPEF "ieee 1481-1999"
*DESIGN "user_project_wrapper"
*DATE "11:11:11 Fri 11 11, 1111"
*VENDOR "OpenRCX"
*PROGRAM "Parallel Extraction"
*VERSION "1.0"
*DESIGN_FLOW "NAME_SCOPE LOCAL" "PIN_CAP NONE"
*DIVIDER /
*DELIMITER :
*BUS_DELIMITER []
*T_UNIT 1 NS
*C_UNIT 1 PF
*R_UNIT 1 OHM
*L_UNIT 1 HENRY

*NAME_MAP
*1 analog_io[0]
*2 analog_io[10]
*3 analog_io[11]
*4 analog_io[12]
*5 analog_io[13]
*6 analog_io[14]
*7 analog_io[15]
*8 analog_io[16]
*9 analog_io[17]
*10 analog_io[18]
*11 analog_io[19]
*12 analog_io[1]
*13 analog_io[20]
*14 analog_io[21]
*15 analog_io[22]
*16 analog_io[23]
*17 analog_io[24]
*18 analog_io[25]
*19 analog_io[26]
*20 analog_io[27]
*21 analog_io[28]
*22 analog_io[2]
*23 analog_io[3]
*24 analog_io[4]
*25 analog_io[5]
*26 analog_io[6]
*27 analog_io[7]
*28 analog_io[8]
*29 analog_io[9]
*30 io_in[0]
*31 io_in[10]
*32 io_in[11]
*33 io_in[12]
*34 io_in[13]
*35 io_in[14]
*36 io_in[15]
*37 io_in[16]
*38 io_in[17]
*39 io_in[18]
*40 io_in[19]
*41 io_in[1]
*42 io_in[20]
*43 io_in[21]
*44 io_in[22]
*45 io_in[23]
*46 io_in[24]
*47 io_in[25]
*48 io_in[26]
*49 io_in[27]
*50 io_in[28]
*51 io_in[29]
*52 io_in[2]
*53 io_in[30]
*54 io_in[31]
*55 io_in[32]
*56 io_in[33]
*57 io_in[34]
*58 io_in[35]
*59 io_in[36]
*60 io_in[37]
*61 io_in[3]
*62 io_in[4]
*63 io_in[5]
*64 io_in[6]
*65 io_in[7]
*66 io_in[8]
*67 io_in[9]
*68 io_oeb[0]
*69 io_oeb[10]
*70 io_oeb[11]
*71 io_oeb[12]
*72 io_oeb[13]
*73 io_oeb[14]
*74 io_oeb[15]
*75 io_oeb[16]
*76 io_oeb[17]
*77 io_oeb[18]
*78 io_oeb[19]
*79 io_oeb[1]
*80 io_oeb[20]
*81 io_oeb[21]
*82 io_oeb[22]
*83 io_oeb[23]
*84 io_oeb[24]
*85 io_oeb[25]
*86 io_oeb[26]
*87 io_oeb[27]
*88 io_oeb[28]
*89 io_oeb[29]
*90 io_oeb[2]
*91 io_oeb[30]
*92 io_oeb[31]
*93 io_oeb[32]
*94 io_oeb[33]
*95 io_oeb[34]
*96 io_oeb[35]
*97 io_oeb[36]
*98 io_oeb[37]
*99 io_oeb[3]
*100 io_oeb[4]
*101 io_oeb[5]
*102 io_oeb[6]
*103 io_oeb[7]
*104 io_oeb[8]
*105 io_oeb[9]
*106 io_out[0]
*107 io_out[10]
*108 io_out[11]
*109 io_out[12]
*110 io_out[13]
*111 io_out[14]
*112 io_out[15]
*113 io_out[16]
*114 io_out[17]
*115 io_out[18]
*116 io_out[19]
*117 io_out[1]
*118 io_out[20]
*119 io_out[21]
*120 io_out[22]
*121 io_out[23]
*122 io_out[24]
*123 io_out[25]
*124 io_out[26]
*125 io_out[27]
*126 io_out[28]
*127 io_out[29]
*128 io_out[2]
*129 io_out[30]
*130 io_out[31]
*131 io_out[32]
*132 io_out[33]
*133 io_out[34]
*134 io_out[35]
*135 io_out[36]
*136 io_out[37]
*137 io_out[3]
*138 io_out[4]
*139 io_out[5]
*140 io_out[6]
*141 io_out[7]
*142 io_out[8]
*143 io_out[9]
*144 la_data_in[0]
*145 la_data_in[100]
*146 la_data_in[101]
*147 la_data_in[102]
*148 la_data_in[103]
*149 la_data_in[104]
*150 la_data_in[105]
*151 la_data_in[106]
*152 la_data_in[107]
*153 la_data_in[108]
*154 la_data_in[109]
*155 la_data_in[10]
*156 la_data_in[110]
*157 la_data_in[111]
*158 la_data_in[112]
*159 la_data_in[113]
*160 la_data_in[114]
*161 la_data_in[115]
*162 la_data_in[116]
*163 la_data_in[117]
*164 la_data_in[118]
*165 la_data_in[119]
*166 la_data_in[11]
*167 la_data_in[120]
*168 la_data_in[121]
*169 la_data_in[122]
*170 la_data_in[123]
*171 la_data_in[124]
*172 la_data_in[125]
*173 la_data_in[126]
*174 la_data_in[127]
*175 la_data_in[12]
*176 la_data_in[13]
*177 la_data_in[14]
*178 la_data_in[15]
*179 la_data_in[16]
*180 la_data_in[17]
*181 la_data_in[18]
*182 la_data_in[19]
*183 la_data_in[1]
*184 la_data_in[20]
*185 la_data_in[21]
*186 la_data_in[22]
*187 la_data_in[23]
*188 la_data_in[24]
*189 la_data_in[25]
*190 la_data_in[26]
*191 la_data_in[27]
*192 la_data_in[28]
*193 la_data_in[29]
*194 la_data_in[2]
*195 la_data_in[30]
*196 la_data_in[31]
*197 la_data_in[32]
*198 la_data_in[33]
*199 la_data_in[34]
*200 la_data_in[35]
*201 la_data_in[36]
*202 la_data_in[37]
*203 la_data_in[38]
*204 la_data_in[39]
*205 la_data_in[3]
*206 la_data_in[40]
*207 la_data_in[41]
*208 la_data_in[42]
*209 la_data_in[43]
*210 la_data_in[44]
*211 la_data_in[45]
*212 la_data_in[46]
*213 la_data_in[47]
*214 la_data_in[48]
*215 la_data_in[49]
*216 la_data_in[4]
*217 la_data_in[50]
*218 la_data_in[51]
*219 la_data_in[52]
*220 la_data_in[53]
*221 la_data_in[54]
*222 la_data_in[55]
*223 la_data_in[56]
*224 la_data_in[57]
*225 la_data_in[58]
*226 la_data_in[59]
*227 la_data_in[5]
*228 la_data_in[60]
*229 la_data_in[61]
*230 la_data_in[62]
*231 la_data_in[63]
*232 la_data_in[64]
*233 la_data_in[65]
*234 la_data_in[66]
*235 la_data_in[67]
*236 la_data_in[68]
*237 la_data_in[69]
*238 la_data_in[6]
*239 la_data_in[70]
*240 la_data_in[71]
*241 la_data_in[72]
*242 la_data_in[73]
*243 la_data_in[74]
*244 la_data_in[75]
*245 la_data_in[76]
*246 la_data_in[77]
*247 la_data_in[78]
*248 la_data_in[79]
*249 la_data_in[7]
*250 la_data_in[80]
*251 la_data_in[81]
*252 la_data_in[82]
*253 la_data_in[83]
*254 la_data_in[84]
*255 la_data_in[85]
*256 la_data_in[86]
*257 la_data_in[87]
*258 la_data_in[88]
*259 la_data_in[89]
*260 la_data_in[8]
*261 la_data_in[90]
*262 la_data_in[91]
*263 la_data_in[92]
*264 la_data_in[93]
*265 la_data_in[94]
*266 la_data_in[95]
*267 la_data_in[96]
*268 la_data_in[97]
*269 la_data_in[98]
*270 la_data_in[99]
*271 la_data_in[9]
*272 la_data_out[0]
*273 la_data_out[100]
*274 la_data_out[101]
*275 la_data_out[102]
*276 la_data_out[103]
*277 la_data_out[104]
*278 la_data_out[105]
*279 la_data_out[106]
*280 la_data_out[107]
*281 la_data_out[108]
*282 la_data_out[109]
*283 la_data_out[10]
*284 la_data_out[110]
*285 la_data_out[111]
*286 la_data_out[112]
*287 la_data_out[113]
*288 la_data_out[114]
*289 la_data_out[115]
*290 la_data_out[116]
*291 la_data_out[117]
*292 la_data_out[118]
*293 la_data_out[119]
*294 la_data_out[11]
*295 la_data_out[120]
*296 la_data_out[121]
*297 la_data_out[122]
*298 la_data_out[123]
*299 la_data_out[124]
*300 la_data_out[125]
*301 la_data_out[126]
*302 la_data_out[127]
*303 la_data_out[12]
*304 la_data_out[13]
*305 la_data_out[14]
*306 la_data_out[15]
*307 la_data_out[16]
*308 la_data_out[17]
*309 la_data_out[18]
*310 la_data_out[19]
*311 la_data_out[1]
*312 la_data_out[20]
*313 la_data_out[21]
*314 la_data_out[22]
*315 la_data_out[23]
*316 la_data_out[24]
*317 la_data_out[25]
*318 la_data_out[26]
*319 la_data_out[27]
*320 la_data_out[28]
*321 la_data_out[29]
*322 la_data_out[2]
*323 la_data_out[30]
*324 la_data_out[31]
*325 la_data_out[32]
*326 la_data_out[33]
*327 la_data_out[34]
*328 la_data_out[35]
*329 la_data_out[36]
*330 la_data_out[37]
*331 la_data_out[38]
*332 la_data_out[39]
*333 la_data_out[3]
*334 la_data_out[40]
*335 la_data_out[41]
*336 la_data_out[42]
*337 la_data_out[43]
*338 la_data_out[44]
*339 la_data_out[45]
*340 la_data_out[46]
*341 la_data_out[47]
*342 la_data_out[48]
*343 la_data_out[49]
*344 la_data_out[4]
*345 la_data_out[50]
*346 la_data_out[51]
*347 la_data_out[52]
*348 la_data_out[53]
*349 la_data_out[54]
*350 la_data_out[55]
*351 la_data_out[56]
*352 la_data_out[57]
*353 la_data_out[58]
*354 la_data_out[59]
*355 la_data_out[5]
*356 la_data_out[60]
*357 la_data_out[61]
*358 la_data_out[62]
*359 la_data_out[63]
*360 la_data_out[64]
*361 la_data_out[65]
*362 la_data_out[66]
*363 la_data_out[67]
*364 la_data_out[68]
*365 la_data_out[69]
*366 la_data_out[6]
*367 la_data_out[70]
*368 la_data_out[71]
*369 la_data_out[72]
*370 la_data_out[73]
*371 la_data_out[74]
*372 la_data_out[75]
*373 la_data_out[76]
*374 la_data_out[77]
*375 la_data_out[78]
*376 la_data_out[79]
*377 la_data_out[7]
*378 la_data_out[80]
*379 la_data_out[81]
*380 la_data_out[82]
*381 la_data_out[83]
*382 la_data_out[84]
*383 la_data_out[85]
*384 la_data_out[86]
*385 la_data_out[87]
*386 la_data_out[88]
*387 la_data_out[89]
*388 la_data_out[8]
*389 la_data_out[90]
*390 la_data_out[91]
*391 la_data_out[92]
*392 la_data_out[93]
*393 la_data_out[94]
*394 la_data_out[95]
*395 la_data_out[96]
*396 la_data_out[97]
*397 la_data_out[98]
*398 la_data_out[99]
*399 la_data_out[9]
*400 la_oenb[0]
*401 la_oenb[100]
*402 la_oenb[101]
*403 la_oenb[102]
*404 la_oenb[103]
*405 la_oenb[104]
*406 la_oenb[105]
*407 la_oenb[106]
*408 la_oenb[107]
*409 la_oenb[108]
*410 la_oenb[109]
*411 la_oenb[10]
*412 la_oenb[110]
*413 la_oenb[111]
*414 la_oenb[112]
*415 la_oenb[113]
*416 la_oenb[114]
*417 la_oenb[115]
*418 la_oenb[116]
*419 la_oenb[117]
*420 la_oenb[118]
*421 la_oenb[119]
*422 la_oenb[11]
*423 la_oenb[120]
*424 la_oenb[121]
*425 la_oenb[122]
*426 la_oenb[123]
*427 la_oenb[124]
*428 la_oenb[125]
*429 la_oenb[126]
*430 la_oenb[127]
*431 la_oenb[12]
*432 la_oenb[13]
*433 la_oenb[14]
*434 la_oenb[15]
*435 la_oenb[16]
*436 la_oenb[17]
*437 la_oenb[18]
*438 la_oenb[19]
*439 la_oenb[1]
*440 la_oenb[20]
*441 la_oenb[21]
*442 la_oenb[22]
*443 la_oenb[23]
*444 la_oenb[24]
*445 la_oenb[25]
*446 la_oenb[26]
*447 la_oenb[27]
*448 la_oenb[28]
*449 la_oenb[29]
*450 la_oenb[2]
*451 la_oenb[30]
*452 la_oenb[31]
*453 la_oenb[32]
*454 la_oenb[33]
*455 la_oenb[34]
*456 la_oenb[35]
*457 la_oenb[36]
*458 la_oenb[37]
*459 la_oenb[38]
*460 la_oenb[39]
*461 la_oenb[3]
*462 la_oenb[40]
*463 la_oenb[41]
*464 la_oenb[42]
*465 la_oenb[43]
*466 la_oenb[44]
*467 la_oenb[45]
*468 la_oenb[46]
*469 la_oenb[47]
*470 la_oenb[48]
*471 la_oenb[49]
*472 la_oenb[4]
*473 la_oenb[50]
*474 la_oenb[51]
*475 la_oenb[52]
*476 la_oenb[53]
*477 la_oenb[54]
*478 la_oenb[55]
*479 la_oenb[56]
*480 la_oenb[57]
*481 la_oenb[58]
*482 la_oenb[59]
*483 la_oenb[5]
*484 la_oenb[60]
*485 la_oenb[61]
*486 la_oenb[62]
*487 la_oenb[63]
*488 la_oenb[64]
*489 la_oenb[65]
*490 la_oenb[66]
*491 la_oenb[67]
*492 la_oenb[68]
*493 la_oenb[69]
*494 la_oenb[6]
*495 la_oenb[70]
*496 la_oenb[71]
*497 la_oenb[72]
*498 la_oenb[73]
*499 la_oenb[74]
*500 la_oenb[75]
*501 la_oenb[76]
*502 la_oenb[77]
*503 la_oenb[78]
*504 la_oenb[79]
*505 la_oenb[7]
*506 la_oenb[80]
*507 la_oenb[81]
*508 la_oenb[82]
*509 la_oenb[83]
*510 la_oenb[84]
*511 la_oenb[85]
*512 la_oenb[86]
*513 la_oenb[87]
*514 la_oenb[88]
*515 la_oenb[89]
*516 la_oenb[8]
*517 la_oenb[90]
*518 la_oenb[91]
*519 la_oenb[92]
*520 la_oenb[93]
*521 la_oenb[94]
*522 la_oenb[95]
*523 la_oenb[96]
*524 la_oenb[97]
*525 la_oenb[98]
*526 la_oenb[99]
*527 la_oenb[9]
*528 user_clock2
*529 user_irq[0]
*530 user_irq[1]
*531 user_irq[2]
*540 wb_clk_i
*541 wb_rst_i
*542 wbs_ack_o
*543 wbs_adr_i[0]
*544 wbs_adr_i[10]
*545 wbs_adr_i[11]
*546 wbs_adr_i[12]
*547 wbs_adr_i[13]
*548 wbs_adr_i[14]
*549 wbs_adr_i[15]
*550 wbs_adr_i[16]
*551 wbs_adr_i[17]
*552 wbs_adr_i[18]
*553 wbs_adr_i[19]
*554 wbs_adr_i[1]
*555 wbs_adr_i[20]
*556 wbs_adr_i[21]
*557 wbs_adr_i[22]
*558 wbs_adr_i[23]
*559 wbs_adr_i[24]
*560 wbs_adr_i[25]
*561 wbs_adr_i[26]
*562 wbs_adr_i[27]
*563 wbs_adr_i[28]
*564 wbs_adr_i[29]
*565 wbs_adr_i[2]
*566 wbs_adr_i[30]
*567 wbs_adr_i[31]
*568 wbs_adr_i[3]
*569 wbs_adr_i[4]
*570 wbs_adr_i[5]
*571 wbs_adr_i[6]
*572 wbs_adr_i[7]
*573 wbs_adr_i[8]
*574 wbs_adr_i[9]
*575 wbs_cyc_i
*576 wbs_dat_i[0]
*577 wbs_dat_i[10]
*578 wbs_dat_i[11]
*579 wbs_dat_i[12]
*580 wbs_dat_i[13]
*581 wbs_dat_i[14]
*582 wbs_dat_i[15]
*583 wbs_dat_i[16]
*584 wbs_dat_i[17]
*585 wbs_dat_i[18]
*586 wbs_dat_i[19]
*587 wbs_dat_i[1]
*588 wbs_dat_i[20]
*589 wbs_dat_i[21]
*590 wbs_dat_i[22]
*591 wbs_dat_i[23]
*592 wbs_dat_i[24]
*593 wbs_dat_i[25]
*594 wbs_dat_i[26]
*595 wbs_dat_i[27]
*596 wbs_dat_i[28]
*597 wbs_dat_i[29]
*598 wbs_dat_i[2]
*599 wbs_dat_i[30]
*600 wbs_dat_i[31]
*601 wbs_dat_i[3]
*602 wbs_dat_i[4]
*603 wbs_dat_i[5]
*604 wbs_dat_i[6]
*605 wbs_dat_i[7]
*606 wbs_dat_i[8]
*607 wbs_dat_i[9]
*608 wbs_dat_o[0]
*609 wbs_dat_o[10]
*610 wbs_dat_o[11]
*611 wbs_dat_o[12]
*612 wbs_dat_o[13]
*613 wbs_dat_o[14]
*614 wbs_dat_o[15]
*615 wbs_dat_o[16]
*616 wbs_dat_o[17]
*617 wbs_dat_o[18]
*618 wbs_dat_o[19]
*619 wbs_dat_o[1]
*620 wbs_dat_o[20]
*621 wbs_dat_o[21]
*622 wbs_dat_o[22]
*623 wbs_dat_o[23]
*624 wbs_dat_o[24]
*625 wbs_dat_o[25]
*626 wbs_dat_o[26]
*627 wbs_dat_o[27]
*628 wbs_dat_o[28]
*629 wbs_dat_o[29]
*630 wbs_dat_o[2]
*631 wbs_dat_o[30]
*632 wbs_dat_o[31]
*633 wbs_dat_o[3]
*634 wbs_dat_o[4]
*635 wbs_dat_o[5]
*636 wbs_dat_o[6]
*637 wbs_dat_o[7]
*638 wbs_dat_o[8]
*639 wbs_dat_o[9]
*640 wbs_sel_i[0]
*641 wbs_sel_i[1]
*642 wbs_sel_i[2]
*643 wbs_sel_i[3]
*644 wbs_stb_i
*645 wbs_we_i
*646 net1
*647 net10
*648 net100
*649 net101
*650 net102
*651 net103
*652 net104
*653 net105
*654 net106
*655 net107
*656 net108
*657 net109
*658 net11
*659 net110
*660 net111
*661 net112
*662 net113
*663 net114
*664 net115
*665 net116
*666 net117
*667 net118
*668 net119
*669 net12
*670 net120
*671 net121
*672 net122
*673 net123
*674 net124
*675 net125
*676 net126
*677 net127
*678 net128
*679 net129
*680 net13
*681 net130
*682 net131
*683 net132
*684 net133
*685 net134
*686 net135
*687 net136
*688 net137
*689 net138
*690 net139
*691 net14
*692 net140
*693 net141
*694 net142
*695 net143
*696 net144
*697 net145
*698 net146
*699 net147
*700 net148
*701 net149
*702 net15
*703 net150
*704 net151
*705 net152
*706 net153
*707 net154
*708 net155
*709 net156
*710 net157
*711 net158
*712 net159
*713 net16
*714 net160
*715 net161
*716 net162
*717 net163
*718 net164
*719 net165
*720 net166
*721 net167
*722 net168
*723 net169
*724 net17
*725 net170
*726 net171
*727 net172
*728 net173
*729 net174
*730 net175
*731 net176
*732 net177
*733 net178
*734 net179
*735 net18
*736 net180
*737 net181
*738 net182
*739 net183
*740 net184
*741 net185
*742 net186
*743 net187
*744 net188
*745 net189
*746 net19
*747 net190
*748 net191
*749 net192
*750 net193
*751 net194
*752 net195
*753 net196
*754 net197
*755 net198
*756 net199
*757 net2
*758 net20
*759 net200
*760 net201
*761 net202
*762 net203
*763 net204
*764 net205
*765 net206
*766 net207
*767 net208
*768 net209
*769 net21
*770 net210
*771 net211
*772 net212
*773 net213
*774 net214
*775 net215
*776 net216
*777 net217
*778 net218
*779 net219
*780 net22
*781 net220
*782 net221
*783 net222
*784 net223
*785 net224
*786 net225
*787 net226
*788 net227
*789 net228
*790 net229
*791 net23
*792 net230
*793 net231
*794 net232
*795 net233
*796 net234
*797 net235
*798 net236
*799 net237
*800 net238
*801 net239
*802 net24
*803 net240
*804 net241
*805 net242
*806 net243
*807 net244
*808 net245
*809 net246
*810 net247
*811 net248
*812 net249
*813 net25
*814 net250
*815 net251
*816 net252
*817 net253
*818 net254
*819 net255
*820 net256
*821 net257
*822 net258
*823 net259
*824 net26
*825 net260
*826 net261
*827 net262
*828 net263
*829 net264
*830 net265
*831 net266
*832 net267
*833 net268
*834 net269
*835 net27
*836 net270
*837 net271
*838 net272
*839 net273
*840 net274
*841 net275
*842 net276
*843 net277
*844 net278
*845 net279
*846 net28
*847 net280
*848 net281
*849 net282
*850 net283
*851 net284
*852 net285
*853 net286
*854 net287
*855 net288
*856 net289
*857 net29
*858 net290
*859 net291
*860 net292
*861 net293
*862 net294
*863 net295
*864 net296
*865 net297
*866 net298
*867 net299
*868 net3
*869 net30
*870 net300
*871 net301
*872 net302
*873 net303
*874 net304
*875 net305
*876 net306
*877 net307
*878 net308
*879 net309
*880 net31
*881 net310
*882 net311
*883 net312
*884 net313
*885 net314
*886 net315
*887 net316
*888 net317
*889 net318
*890 net319
*891 net32
*892 net320
*893 net321
*894 net322
*895 net323
*896 net324
*897 net325
*898 net326
*899 net327
*900 net328
*901 net329
*902 net33
*903 net330
*904 net331
*905 net332
*906 net333
*907 net334
*908 net335
*909 net336
*910 net337
*911 net338
*912 net339
*913 net34
*914 net340
*915 net341
*916 net342
*917 net343
*918 net344
*919 net345
*920 net346
*921 net347
*922 net348
*923 net349
*924 net35
*925 net350
*926 net351
*927 net352
*928 net353
*929 net354
*930 net355
*931 net356
*932 net357
*933 net358
*934 net359
*935 net36
*936 net360
*937 net361
*938 net362
*939 net363
*940 net364
*941 net365
*942 net366
*943 net367
*944 net368
*945 net369
*946 net37
*947 net370
*948 net371
*949 net372
*950 net373
*951 net374
*952 net375
*953 net376
*954 net377
*955 net378
*956 net379
*957 net38
*958 net380
*959 net381
*960 net382
*961 net383
*962 net384
*963 net385
*964 net386
*965 net387
*966 net388
*967 net389
*968 net39
*969 net390
*970 net391
*971 net392
*972 net393
*973 net394
*974 net395
*975 net396
*976 net397
*977 net398
*978 net399
*979 net4
*980 net40
*981 net400
*982 net401
*983 net402
*984 net403
*985 net404
*986 net405
*987 net406
*988 net407
*989 net408
*990 net409
*991 net41
*992 net410
*993 net411
*994 net412
*995 net413
*996 net414
*997 net415
*998 net416
*999 net417
*1000 net418
*1001 net419
*1002 net42
*1003 net420
*1004 net421
*1005 net422
*1006 net423
*1007 net424
*1008 net425
*1009 net426
*1010 net427
*1011 net428
*1012 net429
*1013 net43
*1014 net430
*1015 net431
*1016 net432
*1017 net433
*1018 net434
*1019 net435
*1020 net436
*1021 net437
*1022 net438
*1023 net439
*1024 net44
*1025 net440
*1026 net441
*1027 net442
*1028 net443
*1029 net444
*1030 net445
*1031 net446
*1032 net447
*1033 net448
*1034 net449
*1035 net45
*1036 net450
*1037 net451
*1038 net452
*1039 net453
*1040 net454
*1041 net455
*1042 net456
*1043 net457
*1044 net458
*1045 net459
*1046 net46
*1047 net460
*1048 net461
*1049 net462
*1050 net463
*1051 net464
*1052 net465
*1053 net466
*1054 net467
*1055 net468
*1056 net469
*1057 net47
*1058 net470
*1059 net471
*1060 net472
*1061 net473
*1062 net474
*1063 net475
*1064 net476
*1065 net477
*1066 net478
*1067 net479
*1068 net48
*1069 net480
*1070 net481
*1071 net482
*1072 net483
*1073 net484
*1074 net485
*1075 net486
*1076 net487
*1077 net488
*1078 net489
*1079 net49
*1080 net490
*1081 net491
*1082 net492
*1083 net493
*1084 net494
*1085 net495
*1086 net496
*1087 net497
*1088 net498
*1089 net499
*1090 net5
*1091 net50
*1092 net500
*1093 net501
*1094 net502
*1095 net503
*1096 net504
*1097 net505
*1098 net506
*1099 net507
*1100 net508
*1101 net509
*1102 net51
*1103 net510
*1104 net511
*1105 net512
*1106 net513
*1107 net514
*1108 net515
*1109 net516
*1110 net517
*1111 net518
*1112 net519
*1113 net52
*1114 net520
*1115 net521
*1116 net522
*1117 net523
*1118 net524
*1119 net525
*1120 net526
*1121 net527
*1122 net528
*1123 net529
*1124 net53
*1125 net530
*1126 net531
*1127 net532
*1128 net533
*1129 net534
*1130 net535
*1131 net536
*1132 net537
*1133 net538
*1134 net539
*1135 net54
*1136 net540
*1137 net541
*1138 net542
*1139 net543
*1140 net544
*1141 net545
*1142 net546
*1143 net547
*1144 net548
*1145 net549
*1146 net55
*1147 net550
*1148 net551
*1149 net552
*1150 net553
*1151 net554
*1152 net555
*1153 net556
*1154 net557
*1155 net558
*1156 net559
*1157 net56
*1158 net560
*1159 net561
*1160 net562
*1161 net563
*1162 net564
*1163 net565
*1164 net566
*1165 net567
*1166 net568
*1167 net569
*1168 net57
*1169 net570
*1170 net571
*1171 net572
*1172 net573
*1173 net574
*1174 net575
*1175 net576
*1176 net577
*1177 net578
*1178 net579
*1179 net58
*1180 net580
*1181 net581
*1182 net582
*1183 net583
*1184 net584
*1185 net585
*1186 net586
*1187 net587
*1188 net588
*1189 net589
*1190 net59
*1191 net590
*1192 net591
*1193 net592
*1194 net593
*1195 net594
*1196 net595
*1197 net596
*1198 net597
*1199 net598
*1200 net599
*1201 net6
*1202 net60
*1203 net600
*1204 net601
*1205 net602
*1206 net603
*1207 net604
*1208 net605
*1209 net606
*1210 net607
*1211 net608
*1212 net609
*1213 net61
*1214 net610
*1215 net611
*1216 net612
*1217 net613
*1218 net614
*1219 net615
*1220 net616
*1221 net617
*1222 net618
*1223 net619
*1224 net62
*1225 net620
*1226 net621
*1227 net622
*1228 net623
*1229 net624
*1230 net625
*1231 net626
*1232 net627
*1233 net628
*1234 net629
*1235 net63
*1236 net630
*1237 net631
*1238 net632
*1239 net633
*1240 net634
*1241 net635
*1242 net636
*1243 net637
*1244 net638
*1245 net639
*1246 net64
*1247 net640
*1248 net641
*1249 net642
*1250 net643
*1251 net644
*1252 net645
*1253 net646
*1254 net647
*1255 net648
*1256 net649
*1257 net65
*1258 net650
*1259 net651
*1260 net652
*1261 net653
*1262 net654
*1263 net655
*1264 net656
*1265 net657
*1266 net658
*1267 net659
*1268 net66
*1269 net660
*1270 net661
*1271 net662
*1272 net663
*1273 net664
*1274 net665
*1275 net666
*1276 net667
*1277 net668
*1278 net669
*1279 net67
*1280 net670
*1281 net671
*1282 net672
*1283 net673
*1284 net674
*1285 net675
*1286 net676
*1287 net677
*1288 net678
*1289 net679
*1290 net68
*1291 net680
*1292 net681
*1293 net682
*1294 net683
*1295 net684
*1296 net685
*1297 net686
*1298 net687
*1299 net688
*1300 net689
*1301 net69
*1302 net690
*1303 net691
*1304 net692
*1305 net693
*1306 net694
*1307 net695
*1308 net696
*1309 net697
*1310 net698
*1311 net699
*1312 net7
*1313 net70
*1314 net700
*1315 net701
*1316 net702
*1317 net703
*1318 net704
*1319 net705
*1320 net706
*1321 net707
*1322 net708
*1323 net709
*1324 net71
*1325 net710
*1326 net711
*1327 net712
*1328 net713
*1329 net714
*1330 net715
*1331 net716
*1332 net717
*1333 net718
*1334 net719
*1335 net72
*1336 net720
*1337 net721
*1338 net722
*1339 net723
*1340 net724
*1341 net725
*1342 net726
*1343 net727
*1344 net728
*1345 net729
*1346 net73
*1347 net730
*1348 net731
*1349 net732
*1350 net733
*1351 net734
*1352 net735
*1353 net736
*1354 net737
*1355 net738
*1356 net739
*1357 net74
*1358 net740
*1359 net741
*1360 net742
*1361 net743
*1362 net744
*1363 net745
*1364 net746
*1365 net747
*1366 net748
*1367 net749
*1368 net75
*1369 net750
*1370 net751
*1371 net752
*1372 net753
*1373 net754
*1374 net755
*1375 net756
*1376 net757
*1377 net758
*1378 net759
*1379 net76
*1380 net760
*1381 net761
*1382 net762
*1383 net763
*1384 net764
*1385 net765
*1386 net766
*1387 net767
*1388 net768
*1389 net769
*1390 net77
*1391 net78
*1392 net79
*1393 net8
*1394 net80
*1395 net81
*1396 net82
*1397 net83
*1398 net84
*1399 net85
*1400 net86
*1401 net87
*1402 net88
*1403 net89
*1404 net9
*1405 net90
*1406 net91
*1407 net92
*1408 net93
*1409 net94
*1410 net95
*1411 net96
*1412 net97
*1413 net98
*1414 net99
*1415 PHY_0
*1416 PHY_1
*1417 PHY_10
*1418 PHY_100
*1419 PHY_1000
*1420 PHY_1001
*1421 PHY_1002
*1422 PHY_1003
*1423 PHY_1004
*1424 PHY_1005
*1425 PHY_1006
*1426 PHY_1007
*1427 PHY_1008
*1428 PHY_1009
*1429 PHY_101
*1430 PHY_1010
*1431 PHY_1011
*1432 PHY_1012
*1433 PHY_1013
*1434 PHY_1014
*1435 PHY_1015
*1436 PHY_1016
*1437 PHY_1017
*1438 PHY_1018
*1439 PHY_1019
*1440 PHY_102
*1441 PHY_1020
*1442 PHY_1021
*1443 PHY_1022
*1444 PHY_1023
*1445 PHY_1024
*1446 PHY_1025
*1447 PHY_1026
*1448 PHY_1027
*1449 PHY_1028
*1450 PHY_1029
*1451 PHY_103
*1452 PHY_1030
*1453 PHY_1031
*1454 PHY_1032
*1455 PHY_1033
*1456 PHY_1034
*1457 PHY_1035
*1458 PHY_1036
*1459 PHY_1037
*1460 PHY_1038
*1461 PHY_1039
*1462 PHY_104
*1463 PHY_1040
*1464 PHY_1041
*1465 PHY_1042
*1466 PHY_1043
*1467 PHY_1044
*1468 PHY_1045
*1469 PHY_1046
*1470 PHY_1047
*1471 PHY_1048
*1472 PHY_1049
*1473 PHY_105
*1474 PHY_1050
*1475 PHY_1051
*1476 PHY_1052
*1477 PHY_1053
*1478 PHY_1054
*1479 PHY_1055
*1480 PHY_1056
*1481 PHY_1057
*1482 PHY_1058
*1483 PHY_1059
*1484 PHY_106
*1485 PHY_1060
*1486 PHY_1061
*1487 PHY_1062
*1488 PHY_1063
*1489 PHY_1064
*1490 PHY_1065
*1491 PHY_1066
*1492 PHY_1067
*1493 PHY_1068
*1494 PHY_1069
*1495 PHY_107
*1496 PHY_1070
*1497 PHY_1071
*1498 PHY_1072
*1499 PHY_1073
*1500 PHY_1074
*1501 PHY_1075
*1502 PHY_1076
*1503 PHY_1077
*1504 PHY_1078
*1505 PHY_1079
*1506 PHY_108
*1507 PHY_1080
*1508 PHY_1081
*1509 PHY_1082
*1510 PHY_1083
*1511 PHY_1084
*1512 PHY_1085
*1513 PHY_1086
*1514 PHY_1087
*1515 PHY_1088
*1516 PHY_1089
*1517 PHY_109
*1518 PHY_1090
*1519 PHY_1091
*1520 PHY_1092
*1521 PHY_1093
*1522 PHY_1094
*1523 PHY_1095
*1524 PHY_1096
*1525 PHY_1097
*1526 PHY_1098
*1527 PHY_1099
*1528 PHY_11
*1529 PHY_110
*1530 PHY_1100
*1531 PHY_1101
*1532 PHY_1102
*1533 PHY_1103
*1534 PHY_1104
*1535 PHY_1105
*1536 PHY_1106
*1537 PHY_1107
*1538 PHY_1108
*1539 PHY_1109
*1540 PHY_111
*1541 PHY_1110
*1542 PHY_1111
*1543 PHY_1112
*1544 PHY_1113
*1545 PHY_1114
*1546 PHY_1115
*1547 PHY_1116
*1548 PHY_1117
*1549 PHY_1118
*1550 PHY_1119
*1551 PHY_112
*1552 PHY_1120
*1553 PHY_1121
*1554 PHY_1122
*1555 PHY_1123
*1556 PHY_1124
*1557 PHY_1125
*1558 PHY_1126
*1559 PHY_1127
*1560 PHY_1128
*1561 PHY_1129
*1562 PHY_113
*1563 PHY_1130
*1564 PHY_1131
*1565 PHY_1132
*1566 PHY_1133
*1567 PHY_1134
*1568 PHY_1135
*1569 PHY_1136
*1570 PHY_1137
*1571 PHY_1138
*1572 PHY_1139
*1573 PHY_114
*1574 PHY_1140
*1575 PHY_1141
*1576 PHY_1142
*1577 PHY_1143
*1578 PHY_1144
*1579 PHY_1145
*1580 PHY_1146
*1581 PHY_1147
*1582 PHY_1148
*1583 PHY_1149
*1584 PHY_115
*1585 PHY_1150
*1586 PHY_1151
*1587 PHY_1152
*1588 PHY_1153
*1589 PHY_1154
*1590 PHY_1155
*1591 PHY_1156
*1592 PHY_1157
*1593 PHY_1158
*1594 PHY_1159
*1595 PHY_116
*1596 PHY_1160
*1597 PHY_1161
*1598 PHY_1162
*1599 PHY_1163
*1600 PHY_1164
*1601 PHY_1165
*1602 PHY_1166
*1603 PHY_1167
*1604 PHY_1168
*1605 PHY_1169
*1606 PHY_117
*1607 PHY_1170
*1608 PHY_1171
*1609 PHY_1172
*1610 PHY_1173
*1611 PHY_1174
*1612 PHY_1175
*1613 PHY_1176
*1614 PHY_1177
*1615 PHY_1178
*1616 PHY_1179
*1617 PHY_118
*1618 PHY_1180
*1619 PHY_1181
*1620 PHY_1182
*1621 PHY_1183
*1622 PHY_1184
*1623 PHY_1185
*1624 PHY_1186
*1625 PHY_1187
*1626 PHY_1188
*1627 PHY_1189
*1628 PHY_119
*1629 PHY_1190
*1630 PHY_1191
*1631 PHY_1192
*1632 PHY_1193
*1633 PHY_1194
*1634 PHY_1195
*1635 PHY_1196
*1636 PHY_1197
*1637 PHY_1198
*1638 PHY_1199
*1639 PHY_12
*1640 PHY_120
*1641 PHY_1200
*1642 PHY_1201
*1643 PHY_1202
*1644 PHY_1203
*1645 PHY_1204
*1646 PHY_1205
*1647 PHY_1206
*1648 PHY_1207
*1649 PHY_1208
*1650 PHY_1209
*1651 PHY_121
*1652 PHY_1210
*1653 PHY_1211
*1654 PHY_1212
*1655 PHY_1213
*1656 PHY_1214
*1657 PHY_1215
*1658 PHY_1216
*1659 PHY_1217
*1660 PHY_1218
*1661 PHY_1219
*1662 PHY_122
*1663 PHY_1220
*1664 PHY_1221
*1665 PHY_1222
*1666 PHY_1223
*1667 PHY_1224
*1668 PHY_1225
*1669 PHY_1226
*1670 PHY_1227
*1671 PHY_1228
*1672 PHY_1229
*1673 PHY_123
*1674 PHY_1230
*1675 PHY_1231
*1676 PHY_1232
*1677 PHY_1233
*1678 PHY_1234
*1679 PHY_1235
*1680 PHY_1236
*1681 PHY_1237
*1682 PHY_1238
*1683 PHY_1239
*1684 PHY_124
*1685 PHY_1240
*1686 PHY_1241
*1687 PHY_1242
*1688 PHY_1243
*1689 PHY_1244
*1690 PHY_1245
*1691 PHY_1246
*1692 PHY_1247
*1693 PHY_1248
*1694 PHY_1249
*1695 PHY_125
*1696 PHY_1250
*1697 PHY_1251
*1698 PHY_1252
*1699 PHY_1253
*1700 PHY_1254
*1701 PHY_1255
*1702 PHY_1256
*1703 PHY_1257
*1704 PHY_1258
*1705 PHY_1259
*1706 PHY_126
*1707 PHY_1260
*1708 PHY_1261
*1709 PHY_1262
*1710 PHY_1263
*1711 PHY_1264
*1712 PHY_1265
*1713 PHY_1266
*1714 PHY_1267
*1715 PHY_1268
*1716 PHY_1269
*1717 PHY_127
*1718 PHY_1270
*1719 PHY_1271
*1720 PHY_1272
*1721 PHY_1273
*1722 PHY_1274
*1723 PHY_1275
*1724 PHY_1276
*1725 PHY_1277
*1726 PHY_1278
*1727 PHY_1279
*1728 PHY_128
*1729 PHY_1280
*1730 PHY_1281
*1731 PHY_1282
*1732 PHY_1283
*1733 PHY_1284
*1734 PHY_1285
*1735 PHY_1286
*1736 PHY_1287
*1737 PHY_1288
*1738 PHY_1289
*1739 PHY_129
*1740 PHY_1290
*1741 PHY_1291
*1742 PHY_1292
*1743 PHY_1293
*1744 PHY_1294
*1745 PHY_1295
*1746 PHY_1296
*1747 PHY_1297
*1748 PHY_1298
*1749 PHY_1299
*1750 PHY_13
*1751 PHY_130
*1752 PHY_1300
*1753 PHY_1301
*1754 PHY_1302
*1755 PHY_1303
*1756 PHY_1304
*1757 PHY_1305
*1758 PHY_1306
*1759 PHY_1307
*1760 PHY_1308
*1761 PHY_1309
*1762 PHY_131
*1763 PHY_1310
*1764 PHY_1311
*1765 PHY_1312
*1766 PHY_1313
*1767 PHY_1314
*1768 PHY_1315
*1769 PHY_1316
*1770 PHY_1317
*1771 PHY_1318
*1772 PHY_1319
*1773 PHY_132
*1774 PHY_1320
*1775 PHY_1321
*1776 PHY_1322
*1777 PHY_1323
*1778 PHY_1324
*1779 PHY_1325
*1780 PHY_1326
*1781 PHY_1327
*1782 PHY_1328
*1783 PHY_1329
*1784 PHY_133
*1785 PHY_1330
*1786 PHY_1331
*1787 PHY_1332
*1788 PHY_1333
*1789 PHY_1334
*1790 PHY_1335
*1791 PHY_1336
*1792 PHY_1337
*1793 PHY_1338
*1794 PHY_1339
*1795 PHY_134
*1796 PHY_1340
*1797 PHY_1341
*1798 PHY_1342
*1799 PHY_1343
*1800 PHY_1344
*1801 PHY_1345
*1802 PHY_1346
*1803 PHY_1347
*1804 PHY_1348
*1805 PHY_1349
*1806 PHY_135
*1807 PHY_1350
*1808 PHY_1351
*1809 PHY_1352
*1810 PHY_1353
*1811 PHY_1354
*1812 PHY_1355
*1813 PHY_1356
*1814 PHY_1357
*1815 PHY_1358
*1816 PHY_1359
*1817 PHY_136
*1818 PHY_1360
*1819 PHY_1361
*1820 PHY_1362
*1821 PHY_1363
*1822 PHY_1364
*1823 PHY_1365
*1824 PHY_1366
*1825 PHY_1367
*1826 PHY_1368
*1827 PHY_1369
*1828 PHY_137
*1829 PHY_1370
*1830 PHY_1371
*1831 PHY_1372
*1832 PHY_1373
*1833 PHY_1374
*1834 PHY_1375
*1835 PHY_1376
*1836 PHY_1377
*1837 PHY_1378
*1838 PHY_1379
*1839 PHY_138
*1840 PHY_1380
*1841 PHY_1381
*1842 PHY_1382
*1843 PHY_1383
*1844 PHY_1384
*1845 PHY_1385
*1846 PHY_1386
*1847 PHY_1387
*1848 PHY_1388
*1849 PHY_1389
*1850 PHY_139
*1851 PHY_1390
*1852 PHY_1391
*1853 PHY_1392
*1854 PHY_1393
*1855 PHY_1394
*1856 PHY_1395
*1857 PHY_1396
*1858 PHY_1397
*1859 PHY_1398
*1860 PHY_1399
*1861 PHY_14
*1862 PHY_140
*1863 PHY_1400
*1864 PHY_1401
*1865 PHY_1402
*1866 PHY_1403
*1867 PHY_1404
*1868 PHY_1405
*1869 PHY_1406
*1870 PHY_1407
*1871 PHY_1408
*1872 PHY_1409
*1873 PHY_141
*1874 PHY_1410
*1875 PHY_1411
*1876 PHY_1412
*1877 PHY_1413
*1878 PHY_1414
*1879 PHY_1415
*1880 PHY_1416
*1881 PHY_1417
*1882 PHY_1418
*1883 PHY_1419
*1884 PHY_142
*1885 PHY_1420
*1886 PHY_1421
*1887 PHY_1422
*1888 PHY_1423
*1889 PHY_1424
*1890 PHY_1425
*1891 PHY_1426
*1892 PHY_1427
*1893 PHY_1428
*1894 PHY_1429
*1895 PHY_143
*1896 PHY_1430
*1897 PHY_1431
*1898 PHY_1432
*1899 PHY_1433
*1900 PHY_1434
*1901 PHY_1435
*1902 PHY_1436
*1903 PHY_1437
*1904 PHY_1438
*1905 PHY_1439
*1906 PHY_144
*1907 PHY_1440
*1908 PHY_1441
*1909 PHY_1442
*1910 PHY_1443
*1911 PHY_1444
*1912 PHY_1445
*1913 PHY_1446
*1914 PHY_1447
*1915 PHY_1448
*1916 PHY_1449
*1917 PHY_145
*1918 PHY_1450
*1919 PHY_1451
*1920 PHY_1452
*1921 PHY_1453
*1922 PHY_1454
*1923 PHY_1455
*1924 PHY_1456
*1925 PHY_1457
*1926 PHY_1458
*1927 PHY_1459
*1928 PHY_146
*1929 PHY_1460
*1930 PHY_1461
*1931 PHY_1462
*1932 PHY_1463
*1933 PHY_1464
*1934 PHY_1465
*1935 PHY_1466
*1936 PHY_1467
*1937 PHY_1468
*1938 PHY_1469
*1939 PHY_147
*1940 PHY_1470
*1941 PHY_1471
*1942 PHY_1472
*1943 PHY_1473
*1944 PHY_1474
*1945 PHY_1475
*1946 PHY_1476
*1947 PHY_1477
*1948 PHY_1478
*1949 PHY_1479
*1950 PHY_148
*1951 PHY_1480
*1952 PHY_1481
*1953 PHY_1482
*1954 PHY_1483
*1955 PHY_1484
*1956 PHY_1485
*1957 PHY_1486
*1958 PHY_1487
*1959 PHY_1488
*1960 PHY_1489
*1961 PHY_149
*1962 PHY_1490
*1963 PHY_1491
*1964 PHY_1492
*1965 PHY_1493
*1966 PHY_1494
*1967 PHY_1495
*1968 PHY_1496
*1969 PHY_1497
*1970 PHY_1498
*1971 PHY_1499
*1972 PHY_15
*1973 PHY_150
*1974 PHY_1500
*1975 PHY_1501
*1976 PHY_1502
*1977 PHY_1503
*1978 PHY_1504
*1979 PHY_1505
*1980 PHY_1506
*1981 PHY_1507
*1982 PHY_1508
*1983 PHY_1509